data_image0
_chemical_formula_structural       Ce2C2HC2O8HO8C8O2C12H13C4O2C12H13
_chemical_formula_sum              "Ce2 C40 H28 O20"
_cell_length_a       15.7257
_cell_length_b       12.3756
_cell_length_c       9.338099999999999
_cell_angle_alpha    81.4374
_cell_angle_beta     104.66430000000001
_cell_angle_gamma    129.9251

_space_group_name_H-M_alt    "P 1"
_space_group_IT_number       1

loop_
  _space_group_symop_operation_xyz
  'x, y, z'

loop_
  _atom_site_type_symbol
  _atom_site_label
  _atom_site_symmetry_multiplicity
  _atom_site_fract_x
  _atom_site_fract_y
  _atom_site_fract_z
  _atom_site_occupancy
  Ce  Ce1       1.0  0.95931  0.05471  0.2319  1.0000
  Ce  Ce2       1.0  0.10538999999999998  0.99949  0.01731  1.0000
  C   C1        1.0  0.8828799999999998  0.20262  0.12796  1.0000
  C   C2        1.0  0.4188299999999999  0.31454  0.09597  1.0000
  H   H1        1.0  0.59175  0.95958  0.89609  1.0000
  C   C3        1.0  0.04902999999999997  0.0191  0.70258  1.0000
  C   C4        1.0  0.8690899999999998  0.77679  0.08233  1.0000
  O   O1        1.0  0.16828  0.86012  0.12466999999999999  1.0000
  O   O2        1.0  0.09502999999999999  0.81239  0.9170999999999999  1.0000
  O   O3        1.0  0.6548299999999999  0.9595299999999999  0.89874  1.0000
  O   O4        1.0  0.79754  0.9653099999999999  0.03146  1.0000
  O   O5        1.0  0.91509  0.97054  0.46560999999999997  1.0000
  O   O6        1.0  0.09119  0.10385  0.45233  1.0000
  O   O7        1.0  0.08658999999999999  0.29566  0.21741  1.0000
  O   O8        1.0  0.07303999999999997  0.17437  0.04617  1.0000
  H   H2        1.0  0.42594  0.21135  0.94481  1.0000
  O   O9        1.0  0.88503  0.13023  0.04769  1.0000
  O   O10       1.0  0.93618  0.22062000000000004  0.26252  1.0000
  O   O11       1.0  0.3740299999999998  0.21814999999999998  0.9939899999999999  1.0000
  O   O12       1.0  0.31747  0.19074  0.02895  1.0000
  O   O13       1.0  0.14795  0.07539  0.77668  1.0000
  O   O14       1.0  0.9794099999999998  0.9517699999999999  0.78804  1.0000
  O   O15       1.0  0.90472  0.80242  0.96755  1.0000
  O   O16       1.0  0.9645699999999997  0.87817  0.17923  1.0000
  C   C5        1.0  0.1417799999999999  0.78037  0.023329999999999997  1.0000
  C   C6        1.0  0.6953699999999998  0.92398  0.01961  1.0000
  C   C7        1.0  0.017820000000000003  0.03117  0.53566  1.0000
  C   C8        1.0  0.10614  0.30731  0.09541999999999999  1.0000
  C   C9        1.0  0.6351799999999999  0.8726999999999999  0.13938  1.0000
  C   C10       1.0  0.6871899999999997  0.9270899999999999  0.28879  1.0000
  C   C11       1.0  0.61673  0.87461  0.38678  1.0000
  C   C12       1.0  0.66002  0.91883  0.5408399999999999  1.0000
  O   O17       1.0  0.7615999999999998  0.98997  0.5931  1.0000
  O   O18       1.0  0.58503  0.89161  0.61995  1.0000
  C   C13       1.0  0.4948399999999999  0.78268  0.33152  1.0000
  C   C14       1.0  0.4510699999999999  0.74221  0.18353  1.0000
  C   C15       1.0  0.33564  0.6715  0.11797  1.0000
  C   C16       1.0  0.2738799999999999  0.53531  0.06658  1.0000
  C   C17       1.0  0.32823  0.46564000000000005  0.08420999999999998  1.0000
  C   C18       1.0  0.15818000000000002  0.45415  0.02342  1.0000
  C   C19       1.0  0.11105000000000002  0.53047  0.9984399999999999  1.0000
  C   C20       1.0  0.0  0.46631  0.89574  1.0000
  C   C21       1.0  0.17943999999999988  0.68219  0.03341  1.0000
  C   C22       1.0  0.29509999999999986  0.74787  0.08737  1.0000
  C   C23       1.0  0.37847  0.9033800000000001  0.10451999999999999  1.0000
  C   C24       1.0  0.51888  0.77848  0.0885  1.0000
  H   H3        1.0  0.77586  0.9963900000000001  0.31945  1.0000
  H   H4        1.0  0.6118999999999998  0.9834  0.65977  1.0000
  H   H5        1.0  0.4379899999999999  0.74029  0.40301  1.0000
  H   H6        1.0  0.3869199999999998  0.51484  0.006790000000000074  1.0000
  H   H7        1.0  0.26978  0.35363  0.04817  1.0000
  H   H8        1.0  0.37082  0.47268  0.20327  1.0000
  H   H9        1.0  0.9623299999999998  0.35889  0.86714  1.0000
  H   H10       1.0  0.014150000000000084  0.52215  0.7883  1.0000
  H   H11       1.0  0.94906  0.47865  0.94296  1.0000
  H   H12       1.0  0.4657599999999999  0.94979  0.09621  1.0000
  H   H13       1.0  0.3536299999999999  0.95577  0.015209999999999944  1.0000
  H   H14       1.0  0.38335  0.9289  0.21734  1.0000
  H   H15       1.0  0.47876999999999986  0.74112  0.9715100000000001  1.0000
  C   C25       1.0  0.8074499999999997  0.23433  0.06704  1.0000
  C   C26       1.0  0.76201  0.21736  0.9135800000000001  1.0000
  C   C27       1.0  0.6798999999999997  0.23352  0.84922  1.0000
  C   C28       1.0  0.62509  0.19984  0.69124  1.0000
  O   O19       1.0  0.6764099999999997  0.21479999999999996  0.5997  1.0000
  O   O20       1.0  0.51058  0.13778  0.64671  1.0000
  C   C29       1.0  0.6502399999999998  0.27675  0.94365  1.0000
  C   C30       1.0  0.6982000000000002  0.29532  0.09803  1.0000
  C   C31       1.0  0.7035  0.38794  0.18262  1.0000
  C   C32       1.0  0.79068  0.53151  0.1626  1.0000
  C   C33       1.0  0.90972  0.58899  0.16289  1.0000
  C   C34       1.0  0.76427  0.61809  0.12275  1.0000
  C   C35       1.0  0.6453099999999998  0.55256  0.12358  1.0000
  C   C36       1.0  0.6280799999999997  0.64359  0.14897  1.0000
  C   C37       1.0  0.5532099999999998  0.4027  0.13461  1.0000
  C   C38       1.0  0.5965700000000002  0.33391  0.19601  1.0000
  C   C39       1.0  0.5233799999999997  0.19482  0.26092  1.0000
  C   C40       1.0  0.76825  0.26301  0.16027  1.0000
  H   H16       1.0  0.7898499999999996  0.18999  0.84139  1.0000
  H   H17       1.0  0.47295  0.08055  0.55025  1.0000
  H   H18       1.0  0.5967699999999998  0.30475  0.89784  1.0000
  H   H19       1.0  0.9307499999999997  0.51965  0.21996  1.0000
  H   H20       1.0  0.9765499999999998  0.6829  0.23307999999999998  1.0000
  H   H21       1.0  0.92087  0.6043  0.04520999999999997  1.0000
  H   H22       1.0  0.6436499999999998  0.69972  0.04558  1.0000
  H   H23       1.0  0.6792199999999998  0.69491  0.26342  1.0000
  H   H24       1.0  0.5408999999999998  0.5837  0.16025  1.0000
  H   H25       1.0  0.55758  0.14216  0.28847  1.0000
  H   H26       1.0  0.4846799999999999  0.19606  0.34753  1.0000
  H   H27       1.0  0.4500899999999998  0.13593  0.16704000000000008  1.0000
  H   H28       1.0  0.80337  0.27286  0.27747  1.0000
