data_image0
_chemical_formula_structural       Ce2C2HC2O8HO8C16SC2H14C12SC2H14C12SC2H14C12SC2H14
_chemical_formula_sum              "Ce2 C64 H58 O16 S4"
_cell_length_a       15.4216
_cell_length_b       15.9921
_cell_length_c       17.2131
_cell_angle_alpha    59.54710000000001
_cell_angle_beta     145.6177
_cell_angle_gamma    118.8079

_symmetry_space_group_name_H-M    'P 1'
_symmetry_Int_Tables_number       1

loop_
  _symmetry_equiv_pos_as_xyz
  'x,y,z'

loop_
  _atom_site_type_symbol
  _atom_site_label
  _atom_site_symmetry_multiplicity
  _atom_site_fract_x
  _atom_site_fract_y
  _atom_site_fract_z
  _atom_site_occupancy
  Ce  Ce1       1.0  0.8181299999999998  0.041390000000000045  0.7518399999999997  1.0000
  Ce  Ce2       1.0  0.65687  0.86791  0.8853  1.0000
  C   C1        1.0  0.87631  0.18938000000000005  0.61957  1.0000
  C   C2        1.0  0.43188000000000004  0.66849  0.90025  1.0000
  H   H1        1.0  0.28273  0.23643  0.03727  1.0000
  C   C3        1.0  0.56891  0.98659  0.89104  1.0000
  C   C4        1.0  0.9388799999999997  0.87058  0.006259999999999709  1.0000
  O   O1        1.0  0.80234  0.7377600000000001  0.04110999999999998  1.0000
  O   O2        1.0  0.7819499999999999  0.7839300000000002  0.11582  1.0000
  O   O3        1.0  0.19783  0.18537000000000006  0.9918099999999999  1.0000
  O   O4        1.0  0.0873799999999999  0.04353  0.9279099999999999  1.0000
  O   O5        1.0  0.9884000000000001  0.96863  0.83627  1.0000
  O   O6        1.0  0.7720700000000001  0.88604  0.72728  1.0000
  O   O7        1.0  0.71732  0.13699  0.72286  1.0000
  O   O8        1.0  0.837  0.016949999999999996  0.9124  1.0000
  H   H2        1.0  0.2763100000000001  0.5553  0.8645199999999998  1.0000
  O   O9        1.0  0.9245099999999998  0.1952  0.72174  1.0000
  O   O10       1.0  0.77708  0.11591000000000004  0.56928  1.0000
  O   O11       1.0  0.32525  0.59781  0.84033  1.0000
  O   O12       1.0  0.4782  0.7280600000000002  0.8495  1.0000
  O   O13       1.0  0.4833299999999999  0.9650600000000001  0.77879  1.0000
  O   O14       1.0  0.6983499999999999  0.95547  0.99151  1.0000
  O   O15       1.0  0.84055  0.79836  0.9763  1.0000
  O   O16       1.0  0.8823999999999997  0.95509  0.95329  1.0000
  C   C5        1.0  0.8319400000000001  0.71953  0.14108  1.0000
  C   C6        1.0  0.2066699999999999  0.10602000000000007  0.9985099999999999  1.0000
  C   C7        1.0  0.9044800000000001  0.89267  0.78951  1.0000
  C   C8        1.0  0.78338  0.10968999999999998  0.8423499999999999  1.0000
  C   C9        1.0  0.8513500000000002  0.61313  0.22613  1.0000
  C   C10       1.0  0.6945599999999996  0.5477500000000001  0.1199399999999997  1.0000
  C   C11       1.0  0.66601  0.44693  0.10992000000000002  1.0000
  C   C12       1.0  0.76046  0.4176900000000001  0.1345  1.0000
  C   C13       1.0  0.6942099999999998  0.36612  0.044529999999999736  1.0000
  C   C14       1.0  0.5311099999999999  0.35817  0.9151799999999999  1.0000
  C   C15       1.0  0.4616300000000001  0.3466000000000001  0.78821  1.0000
  C   C16       1.0  0.32671  0.2631300000000001  0.7155099999999999  1.0000
  C   C17       1.0  0.18270999999999996  0.26894  0.65444  1.0000
  C   C18       1.0  0.04507000000000003  0.2955000000000001  0.51176  1.0000
  C   C19       1.0  0.9255499999999999  0.27715  0.48474  1.0000
  C   C20       1.0  0.9737000000000001  0.2365500000000001  0.60681  1.0000
  S   S1        1.0  0.16477999999999995  0.21779000000000012  0.75529  1.0000
  C   C21       1.0  0.4402899999999998  0.38716000000000006  0.8950499999999999  1.0000
  C   C22       1.0  0.5053  0.4150100000000001  0.0012300000000000644  1.0000
  H   H3        1.0  0.87578  0.60616  0.31051  1.0000
  H   H4        1.0  0.9478599999999998  0.58936  0.2751  1.0000
  H   H5        1.0  0.6202700000000001  0.54419  0.1182700000000001  1.0000
  H   H6        1.0  0.64167  0.5894700000000002  0.015069999999999915  1.0000
  H   H7        1.0  0.8835199999999997  0.4410500000000001  0.21634999999999996  1.0000
  H   H8        1.0  0.77075  0.3443800000000001  0.0666  1.0000
  H   H9        1.0  0.42979  0.41899  0.71535  1.0000
  H   H10       1.0  0.5527899999999999  0.33451  0.8190399999999999  1.0000
  H   H11       1.0  0.36701999999999996  0.19121000000000002  0.7906499999999999  1.0000
  H   H12       1.0  0.2950699999999999  0.26271  0.62948  1.0000
  H   H13       1.0  0.03140999999999998  0.31932  0.43133999999999995  1.0000
  H   H14       1.0  0.8054399999999999  0.28701999999999994  0.37924  1.0000
  H   H15       1.0  0.32058  0.39659  0.79292  1.0000
  H   H16       1.0  0.4288099999999999  0.43456  0.9805099999999999  1.0000
  C   C23       1.0  0.10709999999999971  0.8665600000000001  0.1114999999999997  1.0000
  C   C24       1.0  0.18404999999999988  0.7824100000000003  0.24173999999999998  1.0000
  C   C25       1.0  0.16254999999999978  0.69219  0.21678  1.0000
  C   C26       1.0  0.025609999999999803  0.6260400000000003  0.1487999999999998  1.0000
  C   C27       1.0  0.00643999999999997  0.5438900000000001  0.1257999999999999  1.0000
  C   C28       1.0  0.12463000000000002  0.52285  0.17387  1.0000
  C   C29       1.0  0.10845999999999972  0.42721  0.16262999999999994  1.0000
  C   C30       1.0  0.97798  0.42183  0.008879999999999999  1.0000
  C   C31       1.0  0.97152  0.3320400000000001  0.9964899999999999  1.0000
  C   C32       1.0  0.03601000000000004  0.33539000000000013  0.9698799999999999  1.0000
  C   C33       1.0  0.9740499999999997  0.25787999999999994  0.9163600000000001  1.0000
  C   C34       1.0  0.8769999999999999  0.18926  0.9178199999999999  1.0000
  S   S2        1.0  0.84665  0.22718000000000005  0.97027  1.0000
  C   C35       1.0  0.25817  0.59047  0.23468999999999998  1.0000
  C   C36       1.0  0.27889999999999987  0.67441  0.25838  1.0000
  H   H17       1.0  0.16773000000000005  0.93608  0.14671999999999993  1.0000
  H   H18       1.0  0.12601999999999983  0.86685  0.061899999999999844  1.0000
  H   H19       1.0  0.30979  0.8093200000000003  0.3216799999999999  1.0000
  H   H20       1.0  0.16029000000000015  0.7657800000000002  0.29401999999999995  1.0000
  H   H21       1.0  0.93631  0.6331600000000001  0.11997999999999996  1.0000
  H   H22       1.0  0.90032  0.4954300000000001  0.07228999999999997  1.0000
  H   H23       1.0  0.21987999999999988  0.41885  0.21939999999999998  1.0000
  H   H24       1.0  0.08874000000000003  0.3654  0.21916  1.0000
  H   H25       1.0  0.0072199999999999365  0.48657999999999996  0.9622  1.0000
  H   H26       1.0  0.8667899999999997  0.4260000000000002  0.9535899999999999  1.0000
  H   H27       1.0  0.11046999999999992  0.3967700000000001  0.9719299999999998  1.0000
  H   H28       1.0  0.9894499999999998  0.25622  0.8670100000000001  1.0000
  H   H29       1.0  0.3450800000000001  0.5794900000000002  0.26087  1.0000
  H   H30       1.0  0.3753299999999997  0.72928  0.2953  1.0000
  C   C37       1.0  0.36002  0.08099999999999997  0.09217999999999997  1.0000
  C   C38       1.0  0.51081  0.14149  0.20602  1.0000
  C   C39       1.0  0.6488  0.09333999999999999  0.30454  1.0000
  C   C40       1.0  0.66261  0.0011000000000001002  0.38715  1.0000
  C   C41       1.0  0.7516800000000001  0.9409000000000002  0.44156  1.0000
  C   C42       1.0  0.8288199999999997  0.9702300000000001  0.4141799999999999  1.0000
  C   C43       1.0  0.8689200000000001  0.8905700000000002  0.42006  1.0000
  C   C44       1.0  0.80726  0.82681  0.32472  1.0000
  C   C45       1.0  0.66064  0.7638800000000002  0.20723  1.0000
  C   C46       1.0  0.5667399999999998  0.8143300000000001  0.07658999999999999  1.0000
  C   C47       1.0  0.44471000000000005  0.7750900000000001  0.96326  1.0000
  C   C48       1.0  0.4797899999999999  0.68923  0.007709999999999999  1.0000
  S   S3        1.0  0.62493  0.64809  0.194  1.0000
  C   C49       1.0  0.8590099999999999  0.07302000000000003  0.37835999999999986  1.0000
  C   C50       1.0  0.75418  0.13198  0.30628  1.0000
  H   H31       1.0  0.35823  0.08722000000000008  0.023609999999999992  1.0000
  H   H32       1.0  0.36320999999999987  0.002599999999999937  0.14576  1.0000
  H   H33       1.0  0.51962  0.2181  0.15485999999999997  1.0000
  H   H34       1.0  0.5060299999999999  0.1422000000000001  0.26700999999999997  1.0000
  H   H35       1.0  0.59563  0.9719  0.40074  1.0000
  H   H36       1.0  0.7300500000000001  0.8660500000000001  0.47724  1.0000
  H   H37       1.0  0.9965600000000001  0.90947  0.49709999999999993  1.0000
  H   H38       1.0  0.85663  0.8373700000000002  0.47734  1.0000
  H   H39       1.0  0.8927  0.77329  0.4101699999999999  1.0000
  H   H40       1.0  0.85627  0.8768600000000001  0.29064  1.0000
  H   H41       1.0  0.6195999999999999  0.8815600000000001  0.07455999999999999  1.0000
  H   H42       1.0  0.3731799999999999  0.81789  0.8565199999999998  1.0000
  H   H43       1.0  0.9374499999999998  0.10392  0.3769  1.0000
  H   H44       1.0  0.7490600000000001  0.20403000000000004  0.24575  1.0000
  C   C51       1.0  0.9571299999999996  0.8300700000000001  0.7942599999999999  1.0000
  C   C52       1.0  0.9662100000000001  0.7208500000000002  0.8670699999999999  1.0000
  C   C53       1.0  0.9178699999999997  0.66496  0.78379  1.0000
  C   C54       1.0  0.76615  0.61654  0.69079  1.0000
  C   C55       1.0  0.6774599999999997  0.62417  0.55412  1.0000
  C   C56       1.0  0.7413299999999998  0.68291  0.51038  1.0000
  C   C57       1.0  0.62318  0.7442600000000003  0.34472  1.0000
  C   C58       1.0  0.5352399999999999  0.84896  0.20637999999999998  1.0000
  C   C59       1.0  0.5418400000000001  0.9472600000000001  0.10461  1.0000
  C   C60       1.0  0.6689699999999996  0.014129999999999978  0.13752  1.0000
  C   C61       1.0  0.64243  0.06970000000000032  0.028259999999999993  1.0000
  C   C62       1.0  0.5190100000000002  0.028919999999999984  0.9136  1.0000
  S   S4        1.0  0.3897699999999998  0.96474  0.9175800000000001  1.0000
  C   C63       1.0  0.9062  0.6882500000000001  0.62408  1.0000
  C   C64       1.0  0.9950599999999998  0.6877400000000004  0.7592999999999998  1.0000
  H   H45       1.0  0.07150000000000005  0.86353  0.84034  1.0000
  H   H46       1.0  0.8786699999999998  0.8354999999999999  0.68587  1.0000
  H   H47       1.0  0.08717000000000004  0.7112400000000002  0.97529  1.0000
  H   H48       1.0  0.8940299999999999  0.6943800000000002  0.8767899999999998  1.0000
  H   H49       1.0  0.7012300000000001  0.59426  0.70606  1.0000
  H   H50       1.0  0.5556899999999999  0.5984999999999999  0.47966999999999993  1.0000
  H   H51       1.0  0.54605  0.68291  0.28865  1.0000
  H   H52       1.0  0.5789399999999999  0.7571800000000002  0.3637899999999999  1.0000
  H   H53       1.0  0.4979799999999999  0.8822900000000001  0.21755999999999998  1.0000
  H   H54       1.0  0.4169899999999999  0.81209  0.11808  1.0000
  H   H55       1.0  0.78907  0.013169999999999902  0.22980999999999996  1.0000
  H   H56       1.0  0.7460499999999998  0.10572000000000005  0.06017  1.0000
  H   H57       1.0  0.96944  0.71317  0.60832  1.0000
  H   H58       1.0  0.11503999999999978  0.7196500000000002  0.83255  1.0000
