data_image0
_chemical_formula_structural       Ce2C2HC2O8HO8C8OC6OC10OC6NCNC2NCNC6H29C4OC6OC10OC6NCNC2NCNC6H29
_chemical_formula_sum              "Ce2 C80 H60 O22 N8"
_cell_length_a       26.1034
_cell_length_b       22.3494
_cell_length_c       8.869400000000002
_cell_angle_alpha    90.9246
_cell_angle_beta     71.3583
_cell_angle_gamma    130.0202

_space_group_name_H-M_alt    "P 1"
_space_group_IT_number       1

loop_
  _space_group_symop_operation_xyz
  'x, y, z'

loop_
  _atom_site_type_symbol
  _atom_site_label
  _atom_site_symmetry_multiplicity
  _atom_site_fract_x
  _atom_site_fract_y
  _atom_site_fract_z
  _atom_site_occupancy
  Ce  Ce1       1.0  0.97619  0.03777  0.43172  1.0000
  Ce  Ce2       1.0  0.10932  0.06345  0.99705  1.0000
  C   C1        1.0  0.97969  0.14948  0.5769  1.0000
  C   C2        1.0  0.23173  0.16469  0.13862  1.0000
  H   H1        1.0  0.7272699999999999  0.92122  0.73261  1.0000
  C   C3        1.0  0.07479  0.06076  0.73666  1.0000
  C   C4        1.0  0.9609999999999997  0.92832  0.14089  1.0000
  O   O1        1.0  0.10850000000000003  0.97339  0.11792  1.0000
  O   O2        1.0  0.18371000000000012  0.041350000000000005  0.86376  1.0000
  O   O3        1.0  0.7810899999999998  0.96009  0.6710200000000002  1.0000
  O   O4        1.0  0.87528  0.014869999999999928  0.4386500000000001  1.0000
  O   O5        1.0  0.98378  0.04263  0.67978  1.0000
  O   O6        1.0  0.07005999999999997  0.06342999999999997  0.4701300000000001  1.0000
  O   O7        1.0  0.05582999999999999  0.16991999999999996  0.2695300000000001  1.0000
  O   O8        1.0  0.02419999999999999  0.07534  0.14195000000000005  1.0000
  H   H2        1.0  0.27904  0.12001000000000002  0.09601  1.0000
  O   O9        1.0  0.018040000000000056  0.16595  0.42632  1.0000
  O   O10       1.0  0.95218  0.08250999999999997  0.6622900000000003  1.0000
  O   O11       1.0  0.24292999999999998  0.11946999999999999  0.08421000000000002  1.0000
  O   O12       1.0  0.18568999999999994  0.16248  0.10991  1.0000
  O   O13       1.0  0.11770000000000001  0.12571000000000002  0.77509  1.0000
  O   O14       1.0  0.05249999999999996  0.99764  0.8232200000000002  1.0000
  O   O15       1.0  0.005610000000000035  0.93549  0.02068  1.0000
  O   O16       1.0  0.99115  0.0044999999999999485  0.17455  1.0000
  C   C5        1.0  0.15466999999999997  0.9840700000000001  0.9852300000000002  1.0000
  C   C6        1.0  0.8136899999999999  0.9917099999999999  0.51523  1.0000
  C   C7        1.0  0.04272999999999998  0.05576999999999999  0.62487  1.0000
  C   C8        1.0  0.060099999999999966  0.15649999999999997  0.13412000000000004  1.0000
  C   C9        1.0  0.16875  0.9296700000000001  0.9642300000000001  1.0000
  C   C10       1.0  0.1819  0.91217  0.81136  1.0000
  C   C11       1.0  0.18784  0.85456  0.79266  1.0000
  C   C12       1.0  0.18237999999999988  0.81447  0.9267800000000002  1.0000
  O   O17       1.0  0.18568999999999988  0.7539599999999999  0.92108  1.0000
  C   C13       1.0  0.19898000000000002  0.73405  0.7673300000000002  1.0000
  C   C14       1.0  0.2133599999999999  0.67938  0.78617  1.0000
  C   C15       1.0  0.15427  0.59444  0.8503499999999999  1.0000
  C   C16       1.0  0.07652999999999995  0.55749  0.8954300000000001  1.0000
  C   C17       1.0  0.16842  0.54503  0.8781  1.0000
  C   C18       1.0  0.11318000000000003  0.45454000000000006  0.89244  1.0000
  O   O18       1.0  0.14829999999999996  0.43137  0.79564  1.0000
  C   C19       1.0  0.12794999999999995  0.35904  0.8436900000000002  1.0000
  C   C20       1.0  0.18124  0.35729  0.83859  1.0000
  C   C21       1.0  0.16047999999999996  0.28653999999999996  0.9176700000000001  1.0000
  C   C22       1.0  0.08624999999999994  0.21618999999999997  0.9935100000000001  1.0000
  C   C23       1.0  0.03423999999999999  0.21452  0.9738700000000001  1.0000
  C   C24       1.0  0.054740000000000025  0.28651000000000004  0.90402  1.0000
  C   C25       1.0  0.23520999999999992  0.58151  0.89043  1.0000
  C   C26       1.0  0.24258999999999992  0.53066  0.97629  1.0000
  C   C27       1.0  0.29486999999999997  0.66644  0.8255100000000001  1.0000
  C   C28       1.0  0.3681900000000001  0.70756  0.83113  1.0000
  O   O19       1.0  0.38546  0.76722  0.92136  1.0000
  C   C29       1.0  0.44927  0.8084  0.95145  1.0000
  C   C30       1.0  0.50472  0.80694  0.8687  1.0000
  C   C31       1.0  0.55996  0.83857  0.9232300000000002  1.0000
  C   C32       1.0  0.5631299999999999  0.87541  0.054190000000000016  1.0000
  C   C33       1.0  0.60949  0.88981  0.13704000000000005  1.0000
  C   C34       1.0  0.61132  0.82978  0.16908000000000006  1.0000
  N   N1        1.0  0.64981  0.83948  0.25429  1.0000
  C   C35       1.0  0.68682  0.90625  0.30931  1.0000
  N   N2        1.0  0.72689  0.91628  0.38971  1.0000
  C   C36       1.0  0.77414  0.9874  0.42266000000000004  1.0000
  C   C37       1.0  0.7806899999999997  0.05263  0.3761900000000001  1.0000
  N   N3        1.0  0.7366099999999999  0.04115000000000002  0.30471000000000004  1.0000
  C   C38       1.0  0.6918799999999998  0.97055  0.26434000000000024  1.0000
  N   N4        1.0  0.6497099999999999  0.9590199999999998  0.18648000000000023  1.0000
  C   C39       1.0  0.51418  0.88626  0.12064000000000002  1.0000
  C   C40       1.0  0.45831999999999995  0.8541  0.06661  1.0000
  C   C41       1.0  0.28520000000000006  0.7142300000000001  0.75949  1.0000
  C   C42       1.0  0.34985999999999995  0.80379  0.67198  1.0000
  C   C43       1.0  0.17092999999999994  0.83392  0.07743  1.0000
  C   C44       1.0  0.16314999999999996  0.89015  0.09741000000000002  1.0000
  H   H3        1.0  0.18460999999999997  0.9405199999999999  0.7076600000000002  1.0000
  H   H4        1.0  0.19404  0.83998  0.67568  1.0000
  H   H5        1.0  0.15187999999999996  0.70457  0.7319300000000002  1.0000
  H   H6        1.0  0.24598  0.78964  0.6660900000000001  1.0000
  H   H7        1.0  0.06679999999999998  0.59357  0.96292  1.0000
  H   H8        1.0  0.06603  0.55477  0.7825700000000001  1.0000
  H   H9        1.0  0.035320000000000046  0.49629000000000006  0.9814300000000001  1.0000
  H   H10       1.0  0.07038999999999995  0.43751  0.8509400000000001  1.0000
  H   H11       1.0  0.08418  0.42038  0.02445  1.0000
  H   H12       1.0  0.23847999999999991  0.41246999999999995  0.7844  1.0000
  H   H13       1.0  0.20130999999999993  0.28821  0.93095  1.0000
  H   H14       1.0  0.9763899999999998  0.16048  0.03371000000000001  1.0000
  H   H15       1.0  0.013339999999999998  0.2867  0.9035299999999999  1.0000
  H   H16       1.0  0.26041  0.5561  0.07637  1.0000
  H   H17       1.0  0.19055999999999995  0.46708999999999995  0.03865000000000001  1.0000
  H   H18       1.0  0.2834799999999999  0.5305999999999998  0.88559  1.0000
  H   H19       1.0  0.3692699999999998  0.66512  0.8892800000000001  1.0000
  H   H20       1.0  0.41020999999999996  0.73485  0.70228  1.0000
  H   H21       1.0  0.5020099999999998  0.77543  0.7746500000000002  1.0000
  H   H22       1.0  0.5992199999999999  0.8324899999999998  0.86669  1.0000
  H   H23       1.0  0.57795  0.77282  0.13766  1.0000
  H   H24       1.0  0.8112599999999998  0.10601999999999998  0.41994000000000026  1.0000
  H   H25       1.0  0.51714  0.91561  0.21970000000000006  1.0000
  H   H26       1.0  0.41719  0.85712  0.12844  1.0000
  H   H27       1.0  0.34628  0.8415600000000001  0.7503800000000002  1.0000
  H   H28       1.0  0.4044  0.82391  0.6391700000000002  1.0000
  H   H29       1.0  0.34894  0.81736  0.55307  1.0000
  H   H30       1.0  0.16643999999999995  0.80398  0.18191  1.0000
  H   H31       1.0  0.15326  0.9031  0.21645  1.0000
  C   C45       1.0  0.27317  0.21881000000000003  0.23248  1.0000
  C   C46       1.0  0.27545  0.18579  0.36007  1.0000
  C   C47       1.0  0.32466  0.23587999999999998  0.43217  1.0000
  C   C48       1.0  0.3768399999999999  0.32053  0.3669800000000001  1.0000
  O   O20       1.0  0.43483  0.37504  0.41631  1.0000
  C   C49       1.0  0.45725  0.34715000000000007  0.50114  1.0000
  C   C50       1.0  0.5406199999999999  0.4047299999999999  0.4348500000000001  1.0000
  C   C51       1.0  0.58624  0.48336  0.33298  1.0000
  C   C52       1.0  0.56231  0.53051  0.36314  1.0000
  C   C53       1.0  0.6565999999999999  0.52025  0.2135  1.0000
  C   C54       1.0  0.69333  0.59104  0.0721400000000001  1.0000
  O   O21       1.0  0.7058699999999998  0.65558  0.12786  1.0000
  C   C55       1.0  0.7606899999999998  0.71232  0.17442000000000005  1.0000
  C   C56       1.0  0.81617  0.71417  0.16922000000000006  1.0000
  C   C57       1.0  0.8768799999999998  0.7806  0.19509  1.0000
  C   C58       1.0  0.8848199999999998  0.84814  0.21999000000000005  1.0000
  C   C59       1.0  0.82509  0.84096  0.24585  1.0000
  C   C60       1.0  0.76251  0.77222  0.2286  1.0000
  C   C61       1.0  0.6870100000000001  0.4860300000000001  0.22362  1.0000
  C   C62       1.0  0.76092  0.51985  0.09599000000000003  1.0000
  C   C63       1.0  0.64836  0.41982  0.36138  1.0000
  C   C64       1.0  0.6881899999999997  0.39955  0.40861  1.0000
  O   O22       1.0  0.6509  0.31538  0.43136000000000013  1.0000
  C   C65       1.0  0.69057  0.29854  0.4615100000000001  1.0000
  C   C66       1.0  0.69844  0.30156  0.6116800000000002  1.0000
  C   C67       1.0  0.7455899999999998  0.29459  0.6318800000000002  1.0000
  C   C68       1.0  0.7859300000000001  0.28544  0.5017  1.0000
  C   C69       1.0  0.8406  0.28536000000000006  0.5168  1.0000
  C   C70       1.0  0.9097199999999999  0.33079  0.3858  1.0000
  N   N5        1.0  0.9557599999999999  0.32095999999999997  0.3883500000000001  1.0000
  C   C71       1.0  0.93704  0.27018000000000003  0.51853  1.0000
  N   N6        1.0  0.97735  0.25104  0.5104200000000002  1.0000
  C   C72       1.0  0.9557099999999998  0.19338  0.63112  1.0000
  C   C73       1.0  0.89229  0.15728  0.77532  1.0000
  N   N7        1.0  0.85058  0.17505999999999997  0.78274  1.0000
  C   C74       1.0  0.8701599999999999  0.22856  0.65569  1.0000
  N   N8        1.0  0.8233799999999998  0.23688  0.6511600000000002  1.0000
  C   C75       1.0  0.77531  0.27894  0.35448  1.0000
  C   C76       1.0  0.72744  0.28478  0.3353800000000001  1.0000
  C   C77       1.0  0.5740599999999999  0.3775899999999999  0.4630900000000001  1.0000
  C   C78       1.0  0.53089  0.30466999999999994  0.60392  1.0000
  C   C79       1.0  0.37019999999999986  0.35312  0.24833000000000002  1.0000
  C   C80       1.0  0.3185  0.30272  0.18158000000000005  1.0000
  H   H32       1.0  0.2405799999999999  0.12082999999999999  0.4000300000000001  1.0000
  H   H33       1.0  0.32305999999999996  0.20763  0.53348  1.0000
  H   H34       1.0  0.4351099999999999  0.34234  0.63423  1.0000
  H   H35       1.0  0.4378299999999999  0.28745  0.4831400000000001  1.0000
  H   H36       1.0  0.55516  0.54361  0.25586  1.0000
  H   H37       1.0  0.51162  0.49974  0.47738  1.0000
  H   H38       1.0  0.6038699999999999  0.58821  0.38668  1.0000
  H   H39       1.0  0.65414  0.56831  0.013929999999999998  1.0000
  H   H40       1.0  0.7437499999999999  0.6140199999999999  0.9680800000000003  1.0000
  H   H41       1.0  0.8172199999999997  0.6693  0.13055  1.0000
  H   H42       1.0  0.92187  0.78374  0.17697000000000004  1.0000
  H   H43       1.0  0.8234899999999998  0.88452  0.29613  1.0000
  H   H44       1.0  0.71638  0.76717  0.2508  1.0000
  H   H45       1.0  0.7557899999999999  0.47108  0.04376  1.0000
  H   H46       1.0  0.7879000000000002  0.5683300000000001  0.98817  1.0000
  H   H47       1.0  0.8010699999999998  0.54784  0.15416000000000005  1.0000
  H   H48       1.0  0.7441999999999999  0.43370999999999993  0.31377  1.0000
  H   H49       1.0  0.6944  0.41837  0.52312  1.0000
  H   H50       1.0  0.67047  0.31264  0.70866  1.0000
  H   H51       1.0  0.75244  0.29888  0.7468100000000002  1.0000
  H   H52       1.0  0.92574  0.37091  0.27799  1.0000
  H   H53       1.0  0.87275  0.10955999999999999  0.8711  1.0000
  H   H54       1.0  0.80575  0.27151999999999993  0.25169000000000014  1.0000
  H   H55       1.0  0.72221  0.2831  0.21874000000000005  1.0000
  H   H56       1.0  0.5196200000000001  0.25345  0.55406  1.0000
  H   H57       1.0  0.5617799999999998  0.31894  0.68094  1.0000
  H   H58       1.0  0.47779  0.28476000000000007  0.69027  1.0000
  H   H59       1.0  0.40823  0.4182  0.20091000000000006  1.0000
  H   H60       1.0  0.31766  0.32931  0.08275000000000003  1.0000
