data_image0
_chemical_formula_structural       EuOCO6COC2EuOCO6COC2EuOCO6COC2EuOCO6COC8O2CH4C6O2CH4C6O2CH4C6O2CH4C6O2CH4C6O2CH4C6O2CH4C6O2CH4
_chemical_formula_sum              "Eu4 O48 C72 H32"
_cell_length_a       21.7294
_cell_length_b       15.0242
_cell_length_c       9.5184
_cell_angle_alpha    97.0903
_cell_angle_beta     83.5036
_cell_angle_gamma    82.40260000000002

_space_group_name_H-M_alt    "P 1"
_space_group_IT_number       1

loop_
  _space_group_symop_operation_xyz
  'x, y, z'

loop_
  _atom_site_type_symbol
  _atom_site_label
  _atom_site_symmetry_multiplicity
  _atom_site_fract_x
  _atom_site_fract_y
  _atom_site_fract_z
  _atom_site_occupancy
  Eu  Eu1       1.0  0.39148  0.71141  0.15204000000000004  1.0000
  O   O1        1.0  0.25733  0.8455499999999998  0.16537  1.0000
  C   C1        1.0  0.32648  0.61792  0.92636  1.0000
  O   O2        1.0  0.4243  0.8829499999999998  0.05788  1.0000
  O   O3        1.0  0.46035  0.80287  0.22442  1.0000
  O   O4        1.0  0.50187  0.57379  0.14162  1.0000
  O   O5        1.0  0.3631899999999999  0.66032  0.8669000000000001  1.0000
  O   O6        1.0  0.32199000000000005  0.62191  0.07418  1.0000
  O   O7        1.0  0.31866  0.7971699999999999  0.32414  1.0000
  C   C2        1.0  0.28651  0.86613  0.26428  1.0000
  O   O8        1.0  0.41901  0.61649  0.31133  1.0000
  C   C3        1.0  0.47656  0.56415  0.25862  1.0000
  C   C4        1.0  0.45301  0.88137  0.16081  1.0000
  Eu  Eu2       1.0  0.83575  0.81566  0.7578900000000001  1.0000
  O   O9        1.0  0.7384  0.95096  0.52265  1.0000
  C   C5        1.0  0.7205500000000001  0.71939  0.7534200000000001  1.0000
  O   O10       1.0  0.85729  0.85231  0.05729000000000007  1.0000
  O   O11       1.0  0.9002000000000001  0.90404  0.86266  1.0000
  O   O12       1.0  0.9445600000000001  0.7080999999999998  0.8667099999999999  1.0000
  O   O13       1.0  0.68284  0.7872600000000001  0.79916  1.0000
  O   O14       1.0  0.77199  0.7248  0.65716  1.0000
  O   O15       1.0  0.8342100000000002  0.89399  0.56754  1.0000
  C   C6        1.0  0.78198  0.96098  0.5901900000000001  1.0000
  O   O16       1.0  0.9194400000000001  0.71464  0.64463  1.0000
  C   C7        1.0  0.9503300000000001  0.6712  0.74373  1.0000
  C   C8        1.0  0.8954600000000001  0.89653  0.007700000000000041  1.0000
  Eu  Eu3       1.0  0.11400999999999999  0.2851  0.10678  1.0000
  O   O17       1.0  0.24104  0.27107  0.23367000000000002  1.0000
  C   C9        1.0  0.19252  0.37117999999999995  0.88832  1.0000
  O   O18       1.0  0.06987  0.11152  0.97249  1.0000
  O   O19       1.0  0.04099  0.20095  0.18451  1.0000
  O   O20       1.0  0.05138999999999999  0.46443  0.27767  1.0000
  O   O21       1.0  0.17030999999999996  0.3141  0.81541  1.0000
  O   O22       1.0  0.18662000000000004  0.3722  0.03549  1.0000
  O   O23       1.0  0.18829000000000004  0.16744  0.12872  1.0000
  C   C10       1.0  0.23272  0.19205  0.21462000000000003  1.0000
  O   O24       1.0  0.11159  0.34485  0.33974000000000004  1.0000
  C   C11       1.0  0.06919  0.42496  0.37342  1.0000
  C   C12       1.0  0.041110000000000015  0.1219  0.09227  1.0000
  Eu  Eu4       1.0  0.5223  0.32556  0.9339  1.0000
  O   O25       1.0  0.64714  0.27005  0.02807000000000004  1.0000
  C   C13       1.0  0.62226  0.44022  0.80929  1.0000
  O   O26       1.0  0.50003  0.27299  0.20943  1.0000
  O   O27       1.0  0.48449000000000003  0.20066999999999996  0.9992400000000001  1.0000
  O   O28       1.0  0.42599  0.4457199999999999  0.74734  1.0000
  O   O29       1.0  0.6372400000000001  0.37732  0.7131000000000001  1.0000
  O   O30       1.0  0.56274  0.45437  0.8862200000000001  1.0000
  O   O31       1.0  0.6089  0.22959999999999997  0.82357  1.0000
  C   C14       1.0  0.65631  0.22612  0.90972  1.0000
  O   O32       1.0  0.48282  0.30637  0.7218  1.0000
  C   C15       1.0  0.46544  0.38865  0.67391  1.0000
  C   C16       1.0  0.49273  0.20182  0.14192000000000005  1.0000
  C   C17       1.0  0.28981  0.5601  0.8410299999999999  1.0000
  C   C18       1.0  0.2580799999999999  0.4962500000000001  0.9033700000000001  1.0000
  C   C19       1.0  0.22512  0.43917  0.8216500000000001  1.0000
  C   C20       1.0  0.22301  0.44804  0.67676  1.0000
  C   C21       1.0  0.25386999999999993  0.51224  0.6130600000000002  1.0000
  C   C22       1.0  0.25088  0.52171  0.46075  1.0000
  O   O33       1.0  0.2778  0.57758  0.4055  1.0000
  O   O34       1.0  0.21726000000000004  0.46653000000000006  0.37966  1.0000
  C   C23       1.0  0.28765999999999997  0.56733  0.69574  1.0000
  H   H1        1.0  0.26016  0.48969  0.014959999999999998  1.0000
  H   H2        1.0  0.19702999999999998  0.40504  0.61367  1.0000
  H   H3        1.0  0.21806  0.48027999999999993  0.27804000000000006  1.0000
  H   H4        1.0  0.31231  0.61613  0.64694  1.0000
  C   C24       1.0  0.77918  0.04265000000000008  0.69609  1.0000
  C   C25       1.0  0.72126  0.09413000000000005  0.75388  1.0000
  C   C26       1.0  0.7177499999999999  0.1718  0.85469  1.0000
  C   C27       1.0  0.77297  0.1971  0.89987  1.0000
  C   C28       1.0  0.83142  0.14737  0.84114  1.0000
  C   C29       1.0  0.88931  0.17536  0.88792  1.0000
  O   O35       1.0  0.9400400000000001  0.14800999999999997  0.81584  1.0000
  O   O36       1.0  0.88599  0.23249000000000003  0.016380000000000283  1.0000
  C   C30       1.0  0.83414  0.07038  0.73888  1.0000
  H   H5        1.0  0.6785499999999999  0.07298000000000004  0.72259  1.0000
  H   H6        1.0  0.77063  0.25736  0.9768200000000001  1.0000
  H   H7        1.0  0.9288  0.24372000000000002  0.04022999999999999  1.0000
  H   H8        1.0  0.87907  0.03204  0.69299  1.0000
  C   C31       1.0  0.26888  0.12195  0.28177  1.0000
  C   C32       1.0  0.2602  0.031239999999999938  0.24861000000000003  1.0000
  C   C33       1.0  0.29117000000000004  0.96261  0.31279  1.0000
  C   C34       1.0  0.33007999999999993  0.98599  0.41574  1.0000
  C   C35       1.0  0.33978  0.07652  0.45034  1.0000
  C   C36       1.0  0.38307  0.0996  0.55453  1.0000
  O   O37       1.0  0.40102  0.17342  0.56499  1.0000
  O   O38       1.0  0.40515  0.03556000000000001  0.63846  1.0000
  C   C37       1.0  0.30967999999999996  0.14426999999999998  0.38143000000000005  1.0000
  H   H9        1.0  0.22897  0.013349999999999973  0.17168  1.0000
  H   H10       1.0  0.35576  0.93293  0.46322  1.0000
  H   H11       1.0  0.43639  0.0579  0.70108  1.0000
  H   H12       1.0  0.31736  0.21413000000000001  0.40614000000000006  1.0000
  C   C38       1.0  0.71656  0.63482  0.8143000000000001  1.0000
  C   C39       1.0  0.6693799999999999  0.58205  0.78734  1.0000
  C   C40       1.0  0.66787  0.50068  0.8455900000000001  1.0000
  C   C41       1.0  0.7116700000000001  0.47519  0.9365800000000001  1.0000
  C   C42       1.0  0.7590800000000001  0.52761  0.96412  1.0000
  C   C43       1.0  0.80621  0.49877  0.056720000000000007  1.0000
  O   O39       1.0  0.8441300000000002  0.54827  0.09148  1.0000
  O   O40       1.0  0.80851  0.41392  0.10259000000000001  1.0000
  C   C44       1.0  0.76153  0.60692  0.9008800000000001  1.0000
  H   H13       1.0  0.63541  0.60271  0.7180700000000001  1.0000
  H   H14       1.0  0.7090700000000001  0.41386  0.9842600000000001  1.0000
  H   H15       1.0  0.84174  0.40260999999999997  0.16775  1.0000
  H   H16       1.0  0.79811  0.64792  0.92018  1.0000
  C   C45       1.0  0.50634  0.49762  0.34248  1.0000
  C   C46       1.0  0.47236000000000006  0.47633  0.4655500000000001  1.0000
  C   C47       1.0  0.49819  0.4077700000000001  0.53866  1.0000
  C   C48       1.0  0.55764  0.35973  0.48678  1.0000
  C   C49       1.0  0.59479  0.38611  0.37359  1.0000
  C   C50       1.0  0.66095  0.34299  0.33496  1.0000
  O   O41       1.0  0.6956300000000001  0.37099  0.24565  1.0000
  O   O42       1.0  0.68416  0.27071  0.40206000000000003  1.0000
  C   C51       1.0  0.56845  0.45448  0.30031  1.0000
  H   H17       1.0  0.42550000000000004  0.51143  0.50286  1.0000
  H   H18       1.0  0.57668  0.3044  0.53954  1.0000
  H   H19       1.0  0.72727  0.23994  0.35661  1.0000
  H   H20       1.0  0.59597  0.47305  0.20903  1.0000
  C   C52       1.0  0.9362300000000001  0.94014  0.10039  1.0000
  C   C53       1.0  0.9737099999999999  0.0014400000000001076  0.04876999999999998  1.0000
  C   C54       1.0  0.006560000000000001  0.05131  0.14137  1.0000
  C   C55       1.0  0.00592999999999999  0.03438000000000001  0.28312000000000004  1.0000
  C   C56       1.0  0.97375  0.96698  0.33254  1.0000
  C   C57       1.0  0.97974  0.9422900000000001  0.47680000000000006  1.0000
  O   O43       1.0  0.9631799999999998  0.87217  0.5094  1.0000
  O   O44       1.0  0.006070000000000045  0.99784  0.57486  1.0000
  C   C58       1.0  0.93724  0.92214  0.24206  1.0000
  H   H21       1.0  0.97585  0.012529999999999934  0.9380600000000001  1.0000
  H   H22       1.0  0.032459999999999926  0.0717  0.35358  1.0000
  H   H23       1.0  0.009169999999999904  0.9722899999999999  0.66797  1.0000
  H   H24       1.0  0.90995  0.8728899999999998  0.28165  1.0000
  C   C59       1.0  0.49801000000000006  0.11821  0.20900000000000002  1.0000
  C   C60       1.0  0.47439999999999993  0.04106000000000009  0.15127000000000002  1.0000
  C   C61       1.0  0.48029  0.96154  0.21642  1.0000
  C   C62       1.0  0.51099  0.95976  0.3386  1.0000
  C   C63       1.0  0.53556  0.03603  0.39604000000000006  1.0000
  C   C64       1.0  0.56835  0.03361  0.52373  1.0000
  O   O45       1.0  0.59351  0.09799  0.5665  1.0000
  O   O46       1.0  0.5711600000000001  0.95744  0.59476  1.0000
  C   C65       1.0  0.52857  0.11492999999999999  0.331  1.0000
  H   H25       1.0  0.45071  0.043390000000000005  0.05725000000000003  1.0000
  H   H26       1.0  0.51559  0.8990499999999998  0.38987000000000005  1.0000
  H   H27       1.0  0.59618  0.9633  0.67841  1.0000
  H   H28       1.0  0.54775  0.17371  0.37449  1.0000
  C   C66       1.0  0.04391999999999999  0.45907  0.52355  1.0000
  C   C67       1.0  0.012719999999999999  0.54833  0.56268  1.0000
  C   C68       1.0  0.98525  0.57875  0.70399  1.0000
  C   C69       1.0  0.98783  0.51886  0.80587  1.0000
  C   C70       1.0  0.018350000000000075  0.42935000000000006  0.76844  1.0000
  C   C71       1.0  0.017719999999999965  0.3665599999999999  0.8764200000000001  1.0000
  O   O47       1.0  0.03500999999999997  0.28565  0.84095  1.0000
  O   O48       1.0  0.99575  0.40006999999999987  0.01930999999999994  1.0000
  C   C72       1.0  0.04699999999999999  0.40017  0.62737  1.0000
  H   H29       1.0  0.009910000000000002  0.5943  0.48340000000000005  1.0000
  H   H30       1.0  0.9637900000000001  0.5406399999999999  0.9135100000000002  1.0000
  H   H31       1.0  0.99797  0.35126  0.08364  1.0000
  H   H32       1.0  0.07017  0.33092  0.5977000000000001  1.0000
