data_image0
_chemical_formula_structural       Co4O4CoO2CoO7C7O4CO4Co4O4CoO2CoO7C7O4CO4C5OCOC2H14C5OCOC2H14C5OCOC2H14C5OCOC2H14C5OCOC2H14C5OCOC2H14C5OCOC2H14C5OCOC2H14
_chemical_formula_sum              "Co12 O58 C80 H112"
_cell_length_a       15.5844
_cell_length_b       20.6918
_cell_length_c       16.7849
_cell_angle_alpha    89.6416
_cell_angle_beta     90.12569999999998
_cell_angle_gamma    90.7026

_symmetry_space_group_name_H-M    'P 1'
_symmetry_Int_Tables_number       1

loop_
  _symmetry_equiv_pos_as_xyz
  'x,y,z'

loop_
  _atom_site_type_symbol
  _atom_site_label
  _atom_site_symmetry_multiplicity
  _atom_site_fract_x
  _atom_site_fract_y
  _atom_site_fract_z
  _atom_site_occupancy
  Co  Co1       1.0  0.93372  0.01884  0.94534  1.0000
  Co  Co2       1.0  0.09728  0.00788000000000011  0.09367  1.0000
  Co  Co3       1.0  0.92976  0.008639999999999981  0.08887  1.0000
  Co  Co4       1.0  0.10164  0.01653  0.9496000000000002  1.0000
  O   O1        1.0  0.11793  0.08214  0.15035000000000004  1.0000
  O   O2        1.0  0.9184399999999998  0.09993  0.90603  1.0000
  O   O3        1.0  0.9453799999999998  0.08325  0.77691  1.0000
  O   O4        1.0  0.18009  0.97892  0.8842600000000002  1.0000
  Co  Co5       1.0  0.02245  0.0168  0.77783  1.0000
  O   O5        1.0  0.10045  0.9514500000000001  0.77648  1.0000
  O   O6        1.0  0.8470899999999998  0.9664400000000001  0.14778  1.0000
  Co  Co6       1.0  0.008320000000000105  0.98307  0.25782  1.0000
  O   O7        1.0  0.9221099999999998  0.92404  0.24984000000000003  1.0000
  O   O8        1.0  0.01868  0.0020399999999999997  0.88231  1.0000
  O   O9        1.0  0.01089999999999991  0.98336  0.15203  1.0000
  O   O10       1.0  0.85086  0.03251000000000004  0.01695000000000002  1.0000
  O   O11       1.0  0.18175999999999995  0.02881  0.025370000000000004  1.0000
  O   O12       1.0  0.016939999999999993  0.04875000000000001  0.02256  1.0000
  O   O13       1.0  0.09456999999999997  0.04106  0.27161  1.0000
  C   C1        1.0  0.12758  0.08338  0.22605000000000006  1.0000
  C   C2        1.0  0.9133999999999998  0.11681  0.8329800000000003  1.0000
  C   C3        1.0  0.16589  0.94378  0.8226900000000003  1.0000
  C   C4        1.0  0.8679499999999999  0.9520100000000001  0.81243  1.0000
  C   C5        1.0  0.85732  0.9239  0.20291000000000003  1.0000
  C   C6        1.0  0.15564  0.9202  0.20795  1.0000
  C   C7        1.0  0.9100799999999998  0.09239  0.21604  1.0000
  O   O14       1.0  0.93534  0.95844  0.7696  1.0000
  O   O15       1.0  0.85486  0.98451  0.87593  1.0000
  O   O16       1.0  0.08686999999999998  0.91876  0.25037  1.0000
  O   O17       1.0  0.17225  0.9639799999999998  0.15586  1.0000
  C   C8        1.0  0.14563  0.10681999999999998  0.8356600000000002  1.0000
  O   O18       1.0  0.9153299999999998  0.08326  0.14138  1.0000
  O   O19       1.0  0.1101  0.07503999999999998  0.7799400000000001  1.0000
  O   O20       1.0  0.12828  0.09631  0.9089500000000003  1.0000
  O   O21       1.0  0.93169  0.04929999999999999  0.26707  1.0000
  Co  Co7       1.0  0.43617  0.51346  0.44038  1.0000
  Co  Co8       1.0  0.5985299999999998  0.5216  0.59277  1.0000
  Co  Co9       1.0  0.4316  0.51932  0.58831  1.0000
  Co  Co10      1.0  0.6025399999999997  0.51418  0.4440700000000001  1.0000
  O   O22       1.0  0.67341  0.56178  0.66117  1.0000
  O   O23       1.0  0.3612  0.54511  0.36662  1.0000
  O   O24       1.0  0.44428  0.55941  0.2567700000000001  1.0000
  O   O25       1.0  0.62449  0.43096999999999996  0.42038  1.0000
  Co  Co11      1.0  0.51973  0.4942999999999999  0.2738200000000001  1.0000
  O   O26       1.0  0.59241  0.42727  0.28989  1.0000
  O   O27       1.0  0.40529  0.43874  0.62586  1.0000
  Co  Co12      1.0  0.51059  0.51683  0.7605  1.0000
  O   O28       1.0  0.4300499999999999  0.45244000000000006  0.7554700000000002  1.0000
  O   O29       1.0  0.5208  0.52168  0.3744600000000001  1.0000
  O   O30       1.0  0.51316  0.5341  0.6567000000000001  1.0000
  O   O31       1.0  0.35227  0.5077  0.51238  1.0000
  O   O32       1.0  0.68236  0.51099  0.52087  1.0000
  O   O33       1.0  0.51725  0.48446  0.51916  1.0000
  O   O34       1.0  0.59146  0.58028  0.76975  1.0000
  C   C9        1.0  0.65803  0.59172  0.7265900000000002  1.0000
  C   C10       1.0  0.37694  0.57108  0.29845  1.0000
  C   C11       1.0  0.62284  0.40237  0.35359  1.0000
  C   C12       1.0  0.394  0.41278  0.34356  1.0000
  C   C13       1.0  0.39733  0.42081  0.69805  1.0000
  C   C14       1.0  0.6332599999999998  0.4265  0.70534  1.0000
  C   C15       1.0  0.36262  0.58639  0.7182  1.0000
  O   O35       1.0  0.4295499999999999  0.43847  0.28329  1.0000
  O   O36       1.0  0.41095  0.43089  0.41365000000000013  1.0000
  O   O37       1.0  0.5952  0.45642999999999995  0.76077  1.0000
  O   O38       1.0  0.62459  0.44221000000000005  0.63252  1.0000
  C   C16       1.0  0.6736199999999998  0.56466  0.30108  1.0000
  O   O39       1.0  0.35204  0.55676  0.65204  1.0000
  O   O40       1.0  0.6098  0.54908  0.25659  1.0000
  O   O41       1.0  0.68247  0.54498  0.37328  1.0000
  O   O42       1.0  0.42614  0.57658  0.76554  1.0000
  C   C17       1.0  0.86308  0.17721  0.8128600000000002  1.0000
  C   C18       1.0  0.76588  0.16209  0.8169200000000001  1.0000
  C   C19       1.0  0.71307  0.22290999999999997  0.7996800000000002  1.0000
  C   C20       1.0  0.73487  0.25062  0.7161500000000002  1.0000
  C   C21       1.0  0.67594  0.30773  0.68929  1.0000
  O   O43       1.0  0.68134  0.31488  0.60597  1.0000
  C   C22       1.0  0.69692  0.37421  0.7277  1.0000
  O   O44       1.0  0.7043399999999997  0.36941  0.8109800000000003  1.0000
  C   C23       1.0  0.83197  0.26607  0.71069  1.0000
  C   C24       1.0  0.88573  0.20584999999999998  0.73015  1.0000
  H   H1        1.0  0.8792699999999998  0.21419  0.8587  1.0000
  H   H2        1.0  0.7485899999999998  0.12395999999999999  0.77288  1.0000
  H   H3        1.0  0.7488  0.14347  0.87723  1.0000
  H   H4        1.0  0.7274  0.2584  0.8473500000000002  1.0000
  H   H5        1.0  0.64365  0.2101  0.80298  1.0000
  H   H6        1.0  0.72141  0.21085  0.67327  1.0000
  H   H7        1.0  0.60869  0.29477  0.7054  1.0000
  H   H8        1.0  0.64332  0.28148  0.5817400000000001  1.0000
  H   H9        1.0  0.7602099999999998  0.3910100000000001  0.70466  1.0000
  H   H10       1.0  0.648  0.35428  0.83206  1.0000
  H   H11       1.0  0.8479499999999998  0.28294  0.6494900000000002  1.0000
  H   H12       1.0  0.8498  0.30512  0.75295  1.0000
  H   H13       1.0  0.9548799999999997  0.21930999999999998  0.72871  1.0000
  H   H14       1.0  0.8741099999999998  0.169  0.68342  1.0000
  C   C25       1.0  0.88059  0.15749  0.24496000000000004  1.0000
  C   C26       1.0  0.8028399999999998  0.15169  0.30088  1.0000
  C   C27       1.0  0.77768  0.21853000000000003  0.33218  1.0000
  C   C28       1.0  0.7582099999999998  0.26589  0.26295  1.0000
  C   C29       1.0  0.7356499999999998  0.33464  0.29203  1.0000
  O   O45       1.0  0.80736  0.36354  0.32933  1.0000
  C   C30       1.0  0.65843  0.33547  0.3495  1.0000
  O   O46       1.0  0.59331  0.29295  0.32376  1.0000
  C   C31       1.0  0.8340099999999999  0.27009  0.20416  1.0000
  C   C32       1.0  0.8595799999999998  0.20336  0.17482  1.0000
  H   H15       1.0  0.93456  0.1792  0.2792  1.0000
  H   H16       1.0  0.7473499999999997  0.1296  0.26885  1.0000
  H   H17       1.0  0.8185199999999998  0.12010000000000001  0.35264  1.0000
  H   H18       1.0  0.83009  0.23825000000000002  0.37046  1.0000
  H   H19       1.0  0.7197599999999997  0.21208  0.37004  1.0000
  H   H20       1.0  0.7019499999999997  0.24626  0.22941000000000006  1.0000
  H   H21       1.0  0.7187799999999998  0.36283  0.23733  1.0000
  H   H22       1.0  0.80095  0.4111  0.324  1.0000
  H   H23       1.0  0.68129  0.32045  0.40991  1.0000
  H   H24       1.0  0.55835  0.28178  0.3714200000000001  1.0000
  H   H25       1.0  0.8156599999999998  0.30008  0.15173  1.0000
  H   H26       1.0  0.8906799999999998  0.29353  0.23255000000000003  1.0000
  H   H27       1.0  0.91683  0.20921000000000003  0.13595  1.0000
  H   H28       1.0  0.80638  0.18276  0.13828000000000004  1.0000
  C   C33       1.0  0.79281  0.86889  0.20861000000000002  1.0000
  C   C34       1.0  0.80598  0.8273600000000001  0.28455  1.0000
  C   C35       1.0  0.74538  0.76845  0.286  1.0000
  C   C36       1.0  0.75956  0.72597  0.21169000000000004  1.0000
  C   C37       1.0  0.70301  0.66352  0.21237  1.0000
  O   O47       1.0  0.61856  0.67863  0.23439000000000004  1.0000
  C   C38       1.0  0.74111  0.61028  0.26799  1.0000
  O   O48       1.0  0.8018599999999998  0.57463  0.22558000000000006  1.0000
  C   C39       1.0  0.7429099999999997  0.76661  0.13605  1.0000
  C   C40       1.0  0.8012399999999997  0.82681  0.13330000000000006  1.0000
  H   H29       1.0  0.72736  0.8896100000000001  0.21046  1.0000
  H   H30       1.0  0.87322  0.80996  0.28784  1.0000
  H   H31       1.0  0.7939399999999998  0.85722  0.33819  1.0000
  H   H32       1.0  0.6779399999999998  0.7853900000000001  0.28848  1.0000
  H   H33       1.0  0.7576799999999999  0.74049  0.3414  1.0000
  H   H34       1.0  0.82796  0.71107  0.21068  1.0000
  H   H35       1.0  0.70177  0.64282  0.15111  1.0000
  H   H36       1.0  0.5888899999999998  0.69337  0.18522  1.0000
  H   H37       1.0  0.7733  0.6343  0.31965  1.0000
  H   H38       1.0  0.8380499999999997  0.55225  0.26575  1.0000
  H   H39       1.0  0.7556  0.73706  0.08226  1.0000
  H   H40       1.0  0.6749  0.78198  0.13353  1.0000
  H   H41       1.0  0.7841799999999998  0.85595  0.07979000000000003  1.0000
  H   H42       1.0  0.8688599999999997  0.8111900000000001  0.12598  1.0000
  C   C41       1.0  0.21989  0.8677  0.21617000000000006  1.0000
  C   C42       1.0  0.18395999999999998  0.80489  0.18028  1.0000
  C   C43       1.0  0.25102  0.75177  0.18484000000000006  1.0000
  C   C44       1.0  0.28127  0.741  0.2716  1.0000
  C   C45       1.0  0.35103  0.68854  0.27801  1.0000
  O   O49       1.0  0.41706  0.69978  0.22255  1.0000
  C   C46       1.0  0.31377  0.61928  0.26839  1.0000
  O   O50       1.0  0.28889  0.60478  0.18994000000000005  1.0000
  C   C47       1.0  0.3140999999999999  0.80494  0.3087600000000001  1.0000
  C   C48       1.0  0.24660999999999994  0.85778  0.3031  1.0000
  H   H43       1.0  0.27814  0.8819800000000001  0.1814  1.0000
  H   H44       1.0  0.125  0.78883  0.21244000000000005  1.0000
  H   H45       1.0  0.16678000000000004  0.8129800000000001  0.11659  1.0000
  H   H46       1.0  0.3063299999999999  0.76522  0.14611  1.0000
  H   H47       1.0  0.22114  0.70709  0.16083  1.0000
  H   H48       1.0  0.22488  0.72469  0.30721  1.0000
  H   H49       1.0  0.37848  0.69094  0.33947  1.0000
  H   H50       1.0  0.45431  0.73484  0.2439  1.0000
  H   H51       1.0  0.25571  0.61514  0.30661  1.0000
  H   H52       1.0  0.34005  0.60946  0.15525000000000005  1.0000
  H   H53       1.0  0.33005  0.79698  0.37264  1.0000
  H   H54       1.0  0.37323  0.82224  0.27804  1.0000
  H   H55       1.0  0.27445  0.9036200000000001  0.32649  1.0000
  H   H56       1.0  0.19008  0.84404  0.34016000000000013  1.0000
  C   C49       1.0  0.18319  0.13347  0.26665  1.0000
  C   C50       1.0  0.1472  0.20164  0.25972  1.0000
  C   C51       1.0  0.20187  0.24871999999999997  0.30927  1.0000
  C   C52       1.0  0.2970799999999999  0.24761000000000002  0.2833  1.0000
  C   C53       1.0  0.35458999999999996  0.29482  0.33199  1.0000
  O   O51       1.0  0.35991  0.27349  0.4115100000000001  1.0000
  C   C54       1.0  0.32229  0.3651  0.32995  1.0000
  O   O52       1.0  0.28341  0.37938  0.2563000000000001  1.0000
  C   C55       1.0  0.33238  0.17822  0.2875300000000001  1.0000
  C   C56       1.0  0.27666  0.13141  0.23842000000000002  1.0000
  H   H57       1.0  0.18375  0.12088999999999998  0.3314  1.0000
  H   H58       1.0  0.14621999999999993  0.21767  0.19643  1.0000
  H   H59       1.0  0.08063999999999998  0.20197  0.2829500000000001  1.0000
  H   H60       1.0  0.19631  0.23626  0.37365  1.0000
  H   H61       1.0  0.17491  0.29758  0.30063  1.0000
  H   H62       1.0  0.30027  0.26304  0.21978000000000006  1.0000
  H   H63       1.0  0.41945  0.2936  0.30451  1.0000
  H   H64       1.0  0.41204  0.29403  0.43476  1.0000
  H   H65       1.0  0.27398  0.37058  0.37831  1.0000
  H   H66       1.0  0.24592  0.41721  0.26478  1.0000
  H   H67       1.0  0.39896  0.17767  0.26396  1.0000
  H   H68       1.0  0.33448  0.161  0.35041  1.0000
  H   H69       1.0  0.30168  0.0817  0.24616000000000002  1.0000
  H   H70       1.0  0.28078999999999993  0.1444  0.17419000000000007  1.0000
  C   C57       1.0  0.72097  0.64337  0.75475  1.0000
  C   C58       1.0  0.6721  0.69915  0.79496  1.0000
  C   C59       1.0  0.73097  0.75565  0.81935  1.0000
  C   C60       1.0  0.7854  0.78085  0.7485800000000001  1.0000
  C   C61       1.0  0.84782  0.83643  0.7732000000000002  1.0000
  O   O53       1.0  0.8947799999999998  0.8176199999999999  0.84126  1.0000
  C   C62       1.0  0.80245  0.9017  0.7883000000000001  1.0000
  O   O54       1.0  0.7606199999999997  0.92247  0.71873  1.0000
  C   C63       1.0  0.83632  0.72467  0.71244  1.0000
  C   C64       1.0  0.77641  0.66975  0.6853300000000002  1.0000
  H   H71       1.0  0.76435  0.62102  0.79956  1.0000
  H   H72       1.0  0.62134  0.71756  0.75451  1.0000
  H   H73       1.0  0.64001  0.68057  0.8498  1.0000
  H   H74       1.0  0.77292  0.73957  0.86918  1.0000
  H   H75       1.0  0.68994  0.79512  0.8416700000000003  1.0000
  H   H76       1.0  0.74144  0.7994300000000001  0.70149  1.0000
  H   H77       1.0  0.89236  0.8449300000000001  0.72182  1.0000
  H   H78       1.0  0.95494  0.83251  0.83343  1.0000
  H   H79       1.0  0.75492  0.89544  0.83736  1.0000
  H   H80       1.0  0.72139  0.95759  0.73476  1.0000
  H   H81       1.0  0.87329  0.74242  0.6599  1.0000
  H   H82       1.0  0.88301  0.70565  0.75683  1.0000
  H   H83       1.0  0.8165699999999998  0.63032  0.6613800000000001  1.0000
  H   H84       1.0  0.7347899999999999  0.6876  0.63606  1.0000
  C   C65       1.0  0.23044999999999993  0.8916600000000001  0.80454  1.0000
  C   C66       1.0  0.20036  0.84814  0.7352200000000002  1.0000
  C   C67       1.0  0.26379  0.79361  0.71934  1.0000
  C   C68       1.0  0.27781  0.75176  0.79469  1.0000
  C   C69       1.0  0.3411899999999999  0.69544  0.7798800000000002  1.0000
  O   O55       1.0  0.41021  0.71642  0.73182  1.0000
  C   C70       1.0  0.29702999999999996  0.63598  0.74102  1.0000
  O   O56       1.0  0.23788999999999996  0.60806  0.79443  1.0000
  C   C71       1.0  0.3101599999999999  0.7952199999999999  0.86315  1.0000
  C   C72       1.0  0.24722  0.85008  0.87961  1.0000
  H   H85       1.0  0.29185  0.91595  0.78746  1.0000
  H   H86       1.0  0.13633  0.8265400000000002  0.74889  1.0000
  H   H87       1.0  0.19434999999999994  0.8778200000000002  0.68003  1.0000
  H   H88       1.0  0.32569999999999993  0.81564  0.69942  1.0000
  H   H89       1.0  0.23818999999999996  0.76307  0.6703500000000002  1.0000
  H   H90       1.0  0.21472  0.73052  0.81307  1.0000
  H   H91       1.0  0.36646  0.67844  0.83856  1.0000
  H   H92       1.0  0.45348  0.7366  0.7675800000000003  1.0000
  H   H93       1.0  0.26284  0.65192  0.68594  1.0000
  H   H94       1.0  0.198  0.58098  0.76215  1.0000
  H   H95       1.0  0.3172  0.76586  0.91861  1.0000
  H   H96       1.0  0.37413999999999986  0.8165  0.84817  1.0000
  H   H97       1.0  0.27503  0.8809  0.92739  1.0000
  H   H98       1.0  0.1858  0.82936  0.9024600000000003  1.0000
  C   C73       1.0  0.34784  0.35955  0.71853  1.0000
  C   C74       1.0  0.3939499999999999  0.29934  0.68924  1.0000
  C   C75       1.0  0.34735  0.23924  0.72214  1.0000
  C   C76       1.0  0.25144  0.23455999999999996  0.69619  1.0000
  C   C77       1.0  0.18842999999999993  0.21111  0.7634  1.0000
  O   O57       1.0  0.17231  0.26215  0.81581  1.0000
  C   C78       1.0  0.21915  0.15108  0.81196  1.0000
  O   O58       1.0  0.27636  0.11477999999999998  0.7661100000000002  1.0000
  C   C79       1.0  0.21948  0.29711  0.65433  1.0000
  C   C80       1.0  0.2525  0.36087  0.6917400000000001  1.0000
  H   H99       1.0  0.34734  0.35594  0.78481  1.0000
  H   H100      1.0  0.39622  0.29811  0.62305  1.0000
  H   H101      1.0  0.4608399999999999  0.29961  0.71195  1.0000
  H   H102      1.0  0.35264  0.23972  0.7881800000000002  1.0000
  H   H103      1.0  0.38219  0.19593  0.70135  1.0000
  H   H104      1.0  0.24817  0.19651000000000002  0.64957  1.0000
  H   H105      1.0  0.12743  0.19794999999999996  0.73203  1.0000
  H   H106      1.0  0.12034  0.24967999999999999  0.8466800000000002  1.0000
  H   H107      1.0  0.25328  0.16811  0.8664  1.0000
  H   H108      1.0  0.30446  0.08336  0.80231  1.0000
  H   H109      1.0  0.24083  0.29635  0.59115  1.0000
  H   H110      1.0  0.14822  0.29739  0.6527000000000002  1.0000
  H   H111      1.0  0.2121  0.3721  0.74425  1.0000
  H   H112      1.0  0.24173  0.40043000000000006  0.64796  1.0000
