data_image0
_chemical_formula_structural       Ce2C2HC2O8HO8C5OC6OC5SiC19H25COC6OC5SiC19H25
_chemical_formula_sum              "Ce2 C70 H52 O20 Si2"
_cell_length_a       21.4566
_cell_length_b       15.3913
_cell_length_c       9.3937
_cell_angle_alpha    90.2386
_cell_angle_beta     98.4738
_cell_angle_gamma    127.1198

_symmetry_space_group_name_H-M    'P 1'
_symmetry_Int_Tables_number       1

loop_
  _symmetry_equiv_pos_as_xyz
  'x,y,z'

loop_
  _atom_site_type_symbol
  _atom_site_label
  _atom_site_symmetry_multiplicity
  _atom_site_fract_x
  _atom_site_fract_y
  _atom_site_fract_z
  _atom_site_occupancy
  Ce  Ce1       1.0  0.93087  0.04037999999999999  0.45269999999999994  1.0000
  Ce  Ce2       1.0  0.029010000000000015  0.97054  0.16064  1.0000
  C   C1        1.0  0.94319  0.20906999999999998  0.5994  1.0000
  C   C2        1.0  0.21871999999999997  0.16576  0.25427  1.0000
  H   H1        1.0  0.8692  0.23492000000000002  0.04878  1.0000
  C   C3        1.0  0.9818299999999999  0.97566  0.86657  1.0000
  C   C4        1.0  0.87018  0.85733  0.19052  1.0000
  O   O1        1.0  0.06043000000000006  0.88244  0.31985  1.0000
  O   O2        1.0  0.0719200000000001  0.8750700000000001  0.09868999999999994  1.0000
  O   O3        1.0  0.8868099999999999  0.2312399999999999  0.14816  1.0000
  O   O4        1.0  0.9026199999999998  0.14999000000000007  0.32662  1.0000
  O   O5        1.0  0.9352599999999999  0.04576000000000001  0.69537  1.0000
  O   O6        1.0  0.9638699999999999  0.9481499999999999  0.60092  1.0000
  O   O7        1.0  0.06391000000000001  0.17822000000000002  0.46538  1.0000
  O   O8        1.0  0.99645  0.07759  0.25743  1.0000
  H   H2        1.0  0.25575  0.15329  0.45292  1.0000
  O   O9        1.0  0.9398699999999999  0.1987  0.46336000000000005  1.0000
  O   O10       1.0  0.9343799999999999  0.12965  0.65981  1.0000
  O   O11       1.0  0.21143999999999996  0.12440000000000001  0.37356  1.0000
  O   O12       1.0  0.15715999999999997  0.12399  0.15601  1.0000
  O   O13       1.0  0.98452  0.90157  0.9107999999999999  1.0000
  O   O14       1.0  0.003249999999999973  0.045109999999999977  0.9685599999999999  1.0000
  O   O15       1.0  0.9001899999999998  0.8169299999999999  0.15471  1.0000
  O   O16       1.0  0.92563  0.97094  0.22209999999999996  1.0000
  C   C5        1.0  0.07793999999999998  0.84606  0.2232  1.0000
  C   C6        1.0  0.87563  0.14539999999999997  0.19299  1.0000
  C   C7        1.0  0.9585  0.98646  0.71667  1.0000
  C   C8        1.0  0.06516  0.17267  0.33672  1.0000
  C   C9        1.0  0.8319499999999999  0.042880000000000036  0.09328  1.0000
  O   O17       1.0  0.77641  0.0396700000000001  0.98428  1.0000
  C   C10       1.0  0.6932799999999999  0.96528  0.9722999999999998  1.0000
  C   C11       1.0  0.6539399999999999  0.88197  0.0629  1.0000
  C   C12       1.0  0.57115  0.80609  0.03555  1.0000
  C   C13       1.0  0.5258799999999999  0.81277  0.9204699999999999  1.0000
  C   C14       1.0  0.56288  0.8993600000000002  0.8350299999999999  1.0000
  C   C15       1.0  0.51738  0.9125000000000001  0.7260800000000001  1.0000
  O   O18       1.0  0.43456  0.83605  0.69704  1.0000
  C   C16       1.0  0.39365999999999995  0.87482  0.74097  1.0000
  C   C17       1.0  0.35618  0.8170900000000001  0.86568  1.0000
  C   C18       1.0  0.37418999999999997  0.87764  0.9968099999999999  1.0000
  C   C19       1.0  0.34208  0.82439  0.11469  1.0000
  C   C20       1.0  0.29386999999999996  0.70972  0.10476  1.0000
  Si  Si1       1.0  0.24905999999999998  0.64398  0.26135  1.0000
  C   C21       1.0  0.33244000000000007  0.7169000000000002  0.41928  1.0000
  C   C22       1.0  0.20404  0.4958099999999999  0.24846  1.0000
  C   C23       1.0  0.239  0.45949  0.34263  1.0000
  C   C24       1.0  0.1979  0.34781  0.35466  1.0000
  C   C25       1.0  0.12143999999999998  0.27195  0.27395  1.0000
  C   C26       1.0  0.09109  0.30645  0.16548999999999991  1.0000
  C   C27       1.0  0.13212999999999997  0.41847999999999996  0.15331  1.0000
  C   C28       1.0  0.17782  0.6748  0.26959  1.0000
  C   C29       1.0  0.12844999999999995  0.65835  0.1401699999999999  1.0000
  C   C30       1.0  0.09191999999999997  0.70884  0.12897000000000003  1.0000
  C   C31       1.0  0.10322000000000002  0.77581  0.2478  1.0000
  C   C32       1.0  0.14654999999999999  0.7841  0.3816  1.0000
  C   C33       1.0  0.18419  0.73429  0.39205  1.0000
  C   C34       1.0  0.27614  0.64831  0.97448  1.0000
  C   C35       1.0  0.30636  0.70183  0.85461  1.0000
  C   C36       1.0  0.5549999999999999  0.0021500000000000993  0.6465799999999999  1.0000
  C   C37       1.0  0.6374  0.08053  0.67711  1.0000
  C   C38       1.0  0.6833499999999998  0.0676  0.78265  1.0000
  C   C39       1.0  0.6470099999999999  0.9768900000000001  0.86255  1.0000
  H   H3        1.0  0.8746  0.0433699999999999  0.038920000000000066  1.0000
  H   H4        1.0  0.8057499999999997  0.97595  0.16062  1.0000
  H   H5        1.0  0.68473  0.8740300000000001  0.15663  1.0000
  H   H6        1.0  0.5418299999999999  0.74197  0.105  1.0000
  H   H7        1.0  0.4617899999999999  0.75201  0.90213  1.0000
  H   H8        1.0  0.43329  0.96548  0.7697700000000001  1.0000
  H   H9        1.0  0.34640999999999994  0.8559100000000001  0.65032  1.0000
  H   H10       1.0  0.41229999999999994  0.96607  0.00833  1.0000
  H   H11       1.0  0.3547999999999999  0.8732699999999999  0.21331  1.0000
  H   H12       1.0  0.37919  0.70923  0.40276  1.0000
  H   H13       1.0  0.35851999999999995  0.80487  0.43048  1.0000
  H   H14       1.0  0.30888  0.6798  0.51739  1.0000
  H   H15       1.0  0.2955  0.51688  0.41468  1.0000
  H   H16       1.0  0.22175999999999998  0.32071  0.43676  1.0000
  H   H17       1.0  0.03165999999999996  0.24862999999999996  0.10227000000000008  1.0000
  H   H18       1.0  0.10484999999999998  0.44435  0.07746000000000008  1.0000
  H   H19       1.0  0.12310000000000003  0.61378  0.043870000000000076  1.0000
  H   H20       1.0  0.058540000000000036  0.70075  0.024550000000000072  1.0000
  H   H21       1.0  0.15595999999999993  0.83506  0.47467999999999994  1.0000
  H   H22       1.0  0.22153000000000006  0.74722  0.49323  1.0000
  H   H23       1.0  0.23795999999999998  0.55954  0.96435  1.0000
  H   H24       1.0  0.29173999999999994  0.6535  0.75421  1.0000
  H   H25       1.0  0.51991  0.01206  0.56292  1.0000
  H   H26       1.0  0.66572  0.15169  0.61861  1.0000
  H   H27       1.0  0.7473799999999999  0.12997  0.80288  1.0000
  C   C40       1.0  0.95712  0.3048  0.67914  1.0000
  O   O19       1.0  0.8881099999999997  0.30085000000000006  0.64876  1.0000
  C   C41       1.0  0.8697999999999998  0.3181  0.50706  1.0000
  C   C42       1.0  0.91796  0.42311  0.46256  1.0000
  C   C43       1.0  0.89639  0.4434100000000001  0.32678  1.0000
  C   C44       1.0  0.8245599999999998  0.36103999999999997  0.23646  1.0000
  C   C45       1.0  0.7738799999999999  0.25588  0.27989  1.0000
  C   C46       1.0  0.69947  0.17303  0.19219  1.0000
  O   O20       1.0  0.6743599999999998  0.19798999999999997  0.062200000000000005  1.0000
  C   C47       1.0  0.59132  0.14908  0.02194  1.0000
  C   C48       1.0  0.57853  0.23491  0.00787  1.0000
  C   C49       1.0  0.5029299999999999  0.20315  0.94538  1.0000
  C   C50       1.0  0.4869  0.27862000000000003  0.9456200000000001  1.0000
  C   C51       1.0  0.54657  0.38736000000000004  0.00654  1.0000
  Si  Si2       1.0  0.52218  0.48371  0.01984  1.0000
  C   C52       1.0  0.48167  0.48619  0.82971  1.0000
  C   C53       1.0  0.61824  0.62136  0.08993  1.0000
  C   C54       1.0  0.6615600000000001  0.68828  0.9876400000000001  1.0000
  C   C55       1.0  0.74299  0.77172  0.02608  1.0000
  C   C56       1.0  0.7830599999999999  0.79171  0.16835  1.0000
  C   C57       1.0  0.73952  0.72994  0.27409  1.0000
  C   C58       1.0  0.65705  0.64537  0.23512  1.0000
  C   C59       1.0  0.44009  0.41943  0.12629  1.0000
  C   C60       1.0  0.4401399999999999  0.36137  0.24097  1.0000
  C   C61       1.0  0.36952999999999997  0.2837  0.29054  1.0000
  C   C62       1.0  0.29726  0.26192  0.22492  1.0000
  C   C63       1.0  0.29909  0.32658  0.11746999999999999  1.0000
  C   C64       1.0  0.3698099999999999  0.40501  0.0697  1.0000
  C   C65       1.0  0.6230699999999999  0.42046999999999995  0.06297  1.0000
  C   C66       1.0  0.63871  0.34484  0.06516  1.0000
  C   C67       1.0  0.65371  0.06658  0.23439000000000002  1.0000
  C   C68       1.0  0.68014  0.04354000000000001  0.36236  1.0000
  C   C69       1.0  0.75144  0.1264  0.45254  1.0000
  C   C70       1.0  0.7982100000000002  0.23362000000000002  0.41457  1.0000
  H   H28       1.0  0.9698800000000001  0.3011  0.79701  1.0000
  H   H29       1.0  0.01038999999999991  0.38191  0.6512  1.0000
  H   H30       1.0  0.97212  0.48924000000000006  0.53382  1.0000
  H   H31       1.0  0.93466  0.52402  0.29226  1.0000
  H   H32       1.0  0.8097199999999998  0.37956  0.13181  1.0000
  H   H33       1.0  0.56805  0.09824  0.9162999999999999  1.0000
  H   H34       1.0  0.55537  0.09606  0.10122  1.0000
  H   H35       1.0  0.4557499999999999  0.11959  0.8986  1.0000
  H   H36       1.0  0.42749  0.25142  0.9008999999999999  1.0000
  H   H37       1.0  0.52217  0.49951  0.75668  1.0000
  H   H38       1.0  0.4225099999999999  0.4064  0.79097  1.0000
  H   H39       1.0  0.47576  0.55303  0.82747  1.0000
  H   H40       1.0  0.63422  0.6714  0.8747  1.0000
  H   H41       1.0  0.77587  0.8170900000000001  0.9425  1.0000
  H   H42       1.0  0.77002  0.74182  0.3834  1.0000
  H   H43       1.0  0.62544  0.59249  0.3148  1.0000
  H   H44       1.0  0.4933899999999999  0.36990000000000006  0.28463  1.0000
  H   H45       1.0  0.37084  0.23517  0.37227  1.0000
  H   H46       1.0  0.24500999999999998  0.31357  0.06625  1.0000
  H   H47       1.0  0.36788999999999994  0.44881999999999994  0.98153  1.0000
  H   H48       1.0  0.6709299999999998  0.50393  0.10897000000000001  1.0000
  H   H49       1.0  0.6973099999999999  0.37239000000000005  0.1155  1.0000
  H   H50       1.0  0.59827  6.999999999999966e-05  0.16668  1.0000
  H   H51       1.0  0.64491  0.96098  0.39241  1.0000
  H   H52       1.0  0.7702499999999998  0.10589  0.55134  1.0000
