data_image0
_chemical_formula_structural       ZnCH2O4NHNCHCHC2HCHC3HC2HC3HZnCH2O4NHNCHCHC2HCHC3HC2HC3HZnCH2O4NHNCHCHC2HCHC3HC2HC3HZnCH2O4NHNCHCHC2HCHC3HC2HC3H
_chemical_formula_sum              "Zn4 C56 H40 O16 N8"
_cell_length_a       11.0718
_cell_length_b       10.7185
_cell_length_c       15.143299999999998
_cell_angle_alpha    90.0
_cell_angle_beta     91.817
_cell_angle_gamma    90.0

_symmetry_space_group_name_H-M    'P 1'
_symmetry_Int_Tables_number       1

loop_
  _symmetry_equiv_pos_as_xyz
  'x,y,z'

loop_
  _atom_site_type_symbol
  _atom_site_label
  _atom_site_symmetry_multiplicity
  _atom_site_fract_x
  _atom_site_fract_y
  _atom_site_fract_z
  _atom_site_occupancy
  Zn  Zn1       1.0  0.73613  0.46774  0.9238700000000002  1.0000
  C   C1        1.0  0.5788  0.9295  0.15710000000000002  1.0000
  H   H1        1.0  0.5536  0.001  0.11950000000000001  1.0000
  H   H2        1.0  0.506  0.8987000000000002  0.1866  1.0000
  O   O1        1.0  0.7319  0.3242  0.005280000000000002  1.0000
  O   O2        1.0  0.908  0.4060000000000001  0.04721  1.0000
  O   O3        1.0  0.5879  0.4681  0.8478900000000003  1.0000
  O   O4        1.0  0.6552  0.2962000000000001  0.7847500000000002  1.0000
  N   N1        1.0  0.6643  0.9741000000000001  0.22447000000000006  1.0000
  H   H3        1.0  0.6558  0.9501000000000001  0.27950000000000014  1.0000
  N   N2        1.0  0.6951000000000002  0.6252000000000002  0.9936600000000002  1.0000
  C   C2        1.0  0.7739  0.6834  0.04930000000000001  1.0000
  H   H4        1.0  0.8551  0.6546000000000001  0.0528  1.0000
  C   C3        1.0  0.7424  0.7823  0.10130000000000003  1.0000
  H   H5        1.0  0.8013  0.8205  0.1394  1.0000
  C   C4        1.0  0.6246  0.8268000000000002  0.09810000000000003  1.0000
  C   C5        1.0  0.5439  0.7682000000000002  0.04000000000000001  1.0000
  H   H6        1.0  0.4628  0.7971  0.0344  1.0000
  C   C6        1.0  0.58  0.6694000000000002  0.9907000000000002  1.0000
  H   H7        1.0  0.5222  0.6297  0.9525000000000002  1.0000
  C   C7        1.0  0.8288  0.32550000000000007  0.05400000000000001  1.0000
  C   C8        1.0  0.8418  0.2247  0.12320000000000003  1.0000
  C   C9        1.0  0.9497  0.21610000000000004  0.17240000000000005  1.0000
  H   H8        1.0  0.014700000000000001  0.27080000000000004  0.16050000000000006  1.0000
  C   C10       1.0  0.9621  0.12750000000000003  0.23864  1.0000
  C   C11       1.0  0.7478999999999999  0.14350000000000002  0.13851000000000005  1.0000
  H   H9        1.0  0.6753  0.1489  0.10350000000000002  1.0000
  C   C12       1.0  0.7587999999999999  0.0532  0.20510000000000003  1.0000
  C   C13       1.0  0.5783  0.3771  0.7932000000000002  1.0000
  C   C14       1.0  0.8674999999999999  0.0475  0.2544  1.0000
  H   H10       1.0  0.8765999999999998  0.9869000000000002  0.2999  1.0000
  Zn  Zn2       1.0  0.23612999999999998  0.03226  0.42387000000000014  1.0000
  C   C15       1.0  0.07880000000000001  0.5705  0.6571000000000002  1.0000
  H   H11       1.0  0.053600000000000016  0.499  0.6195000000000002  1.0000
  H   H12       1.0  0.006000000000000001  0.6013  0.6866  1.0000
  O   O5        1.0  0.2319  0.1758  0.50528  1.0000
  O   O6        1.0  0.408  0.094  0.54721  1.0000
  O   O7        1.0  0.0879  0.0319  0.34789  1.0000
  O   O8        1.0  0.1552  0.20380000000000006  0.2847500000000001  1.0000
  N   N3        1.0  0.1643  0.5259  0.72447  1.0000
  H   H13       1.0  0.1558  0.5499000000000002  0.7795  1.0000
  N   N4        1.0  0.1951  0.8748  0.4936600000000001  1.0000
  C   C16       1.0  0.2739  0.8166  0.5493  1.0000
  H   H14       1.0  0.3551  0.8454  0.5528  1.0000
  C   C17       1.0  0.2424  0.7177  0.6013  1.0000
  H   H15       1.0  0.3013  0.6795  0.6394000000000002  1.0000
  C   C18       1.0  0.1246  0.6732  0.5981  1.0000
  C   C19       1.0  0.043899999999999995  0.7318  0.54  1.0000
  H   H16       1.0  0.9628  0.7029000000000002  0.5344  1.0000
  C   C20       1.0  0.08  0.8306  0.49070000000000014  1.0000
  H   H17       1.0  0.0222  0.8703  0.4525000000000001  1.0000
  C   C21       1.0  0.3287999999999999  0.1745  0.5540000000000003  1.0000
  C   C22       1.0  0.3418  0.27530000000000004  0.6232000000000002  1.0000
  C   C23       1.0  0.4497  0.2839  0.6724000000000002  1.0000
  H   H18       1.0  0.5147  0.22920000000000001  0.6605  1.0000
  C   C24       1.0  0.4621  0.3725  0.7386400000000002  1.0000
  C   C25       1.0  0.2479  0.3565  0.63851  1.0000
  H   H19       1.0  0.1753  0.3511000000000001  0.6035  1.0000
  C   C26       1.0  0.2588  0.4468000000000001  0.7051000000000002  1.0000
  C   C27       1.0  0.0783  0.1229  0.2932  1.0000
  C   C28       1.0  0.3674999999999999  0.45250000000000007  0.7544000000000002  1.0000
  H   H20       1.0  0.3766  0.5131  0.7999000000000002  1.0000
  Zn  Zn3       1.0  0.7638700000000002  0.9677400000000002  0.5761300000000001  1.0000
  C   C29       1.0  0.9212  0.4295000000000001  0.3429000000000001  1.0000
  H   H21       1.0  0.9464  0.5010000000000001  0.3805000000000001  1.0000
  H   H22       1.0  0.9939999999999999  0.3987000000000001  0.3134  1.0000
  O   O9        1.0  0.7681  0.8242000000000003  0.4947200000000001  1.0000
  O   O10       1.0  0.592  0.9060000000000002  0.45279000000000014  1.0000
  O   O11       1.0  0.9121  0.9681000000000001  0.6521100000000002  1.0000
  O   O12       1.0  0.8447999999999999  0.7962  0.7152500000000002  1.0000
  N   N5        1.0  0.8357  0.4741  0.27553  1.0000
  H   H23       1.0  0.8442  0.4501000000000001  0.22050000000000006  1.0000
  N   N6        1.0  0.8049  0.1252  0.5063400000000002  1.0000
  C   C30       1.0  0.7260999999999999  0.1834  0.4507000000000001  1.0000
  H   H24       1.0  0.6449  0.1546  0.4472000000000001  1.0000
  C   C31       1.0  0.7575999999999999  0.2823  0.3987000000000001  1.0000
  H   H25       1.0  0.6986999999999999  0.3205  0.3606000000000001  1.0000
  C   C32       1.0  0.8754  0.3268  0.40190000000000003  1.0000
  C   C33       1.0  0.9560999999999997  0.2682  0.4600000000000001  1.0000
  H   H26       1.0  0.0372  0.29710000000000003  0.4656  1.0000
  C   C34       1.0  0.92  0.1694  0.5093  1.0000
  H   H27       1.0  0.9777999999999999  0.12970000000000004  0.5475000000000002  1.0000
  C   C35       1.0  0.6711999999999999  0.8255000000000002  0.4460000000000001  1.0000
  C   C36       1.0  0.6582  0.7247  0.3768  1.0000
  C   C37       1.0  0.5502999999999999  0.7161000000000001  0.3276000000000001  1.0000
  H   H28       1.0  0.4853  0.7708000000000002  0.33950000000000014  1.0000
  C   C38       1.0  0.5379  0.6275  0.2613600000000001  1.0000
  C   C39       1.0  0.7521  0.6435  0.36149  1.0000
  H   H29       1.0  0.8247  0.6489  0.39650000000000013  1.0000
  C   C40       1.0  0.7412  0.5532  0.2949  1.0000
  C   C41       1.0  0.9216999999999999  0.8771000000000001  0.7068000000000002  1.0000
  C   C42       1.0  0.6325  0.5475  0.24560000000000007  1.0000
  H   H30       1.0  0.6234  0.4869000000000001  0.20010000000000006  1.0000
  Zn  Zn4       1.0  0.26387  0.53226  0.07613  1.0000
  C   C43       1.0  0.42119999999999996  0.0705  0.8429000000000002  1.0000
  H   H31       1.0  0.44639999999999996  0.9990000000000001  0.8805000000000002  1.0000
  H   H32       1.0  0.494  0.1013  0.8134000000000002  1.0000
  O   O13       1.0  0.2681  0.6758  0.9947200000000003  1.0000
  O   O14       1.0  0.09199999999999998  0.594  0.9527900000000002  1.0000
  O   O15       1.0  0.4121  0.5319000000000002  0.15211  1.0000
  O   O16       1.0  0.3448  0.7038  0.21525000000000005  1.0000
  N   N7        1.0  0.3357  0.025900000000000003  0.77553  1.0000
  H   H33       1.0  0.3442  0.0499  0.7205000000000003  1.0000
  N   N8        1.0  0.3049  0.3748  0.006340000000000002  1.0000
  C   C44       1.0  0.2261  0.3166  0.9507000000000002  1.0000
  H   H34       1.0  0.1449  0.3454  0.9472  1.0000
  C   C45       1.0  0.25759999999999994  0.21770000000000006  0.8987000000000003  1.0000
  H   H35       1.0  0.1987  0.17950000000000002  0.8606000000000003  1.0000
  C   C46       1.0  0.3754  0.17320000000000002  0.9019000000000003  1.0000
  C   C47       1.0  0.45610000000000006  0.2318  0.9600000000000002  1.0000
  H   H36       1.0  0.5372  0.20290000000000002  0.9656000000000002  1.0000
  C   C48       1.0  0.42  0.33060000000000006  0.0093  1.0000
  H   H37       1.0  0.47779999999999995  0.3703000000000001  0.047500000000000014  1.0000
  C   C49       1.0  0.1712  0.6745  0.9460000000000002  1.0000
  C   C50       1.0  0.1582  0.7753000000000002  0.8768000000000002  1.0000
  C   C51       1.0  0.0503  0.7839000000000002  0.8276000000000001  1.0000
  H   H38       1.0  0.9853  0.7292000000000002  0.8395000000000002  1.0000
  C   C52       1.0  0.0379  0.8725000000000003  0.76136  1.0000
  C   C53       1.0  0.25209999999999994  0.8565  0.8614900000000002  1.0000
  H   H39       1.0  0.3247  0.8511000000000001  0.8965000000000002  1.0000
  C   C54       1.0  0.24119999999999994  0.9468000000000002  0.7949000000000003  1.0000
  C   C55       1.0  0.42169999999999996  0.6229000000000001  0.2068  1.0000
  C   C56       1.0  0.1325  0.9525  0.7456000000000003  1.0000
  H   H40       1.0  0.1234  0.013100000000000002  0.7001000000000002  1.0000
