data_image0
_chemical_formula_structural       CdO2N3ONC5HCHC3HOCdO2N3ONC5HCHC3HOCdO2N3ONC5HCHC3HOCdO2N3ONC5HCHC3HOCdO2N3ONC5HCHC3HOCdO2N3ONC5HCHC3HOCdO2N3ONC5HCHC3HOCdO2N3ONC5HCHC3HOCd4
_chemical_formula_sum              "Cd12 O32 N32 C72 H24"
_cell_length_a       12.8688
_cell_length_b       18.0925
_cell_length_c       14.519
_cell_angle_alpha    90.0
_cell_angle_beta     116.05299999999998
_cell_angle_gamma    90.0

_space_group_name_H-M_alt    "P 1"
_space_group_IT_number       1

loop_
  _space_group_symop_operation_xyz
  'x, y, z'

loop_
  _atom_site_type_symbol
  _atom_site_label
  _atom_site_symmetry_multiplicity
  _atom_site_fract_x
  _atom_site_fract_y
  _atom_site_fract_z
  _atom_site_occupancy
  Cd  Cd1       1.0  0.10940000000000005  0.27123  0.55718  1.0000
  O   O1        1.0  0.126  0.31981  0.42019999999999996  1.0000
  O   O2        1.0  0.3702300000000001  0.63544  0.46204  1.0000
  N   N1        1.0  0.7166000000000002  0.60564  0.33229999999999993  1.0000
  N   N2        1.0  0.6932000000000001  0.5357700000000001  0.30979999999999996  1.0000
  N   N3        1.0  0.8301000000000001  0.61623  0.3598  1.0000
  O   O3        1.0  0.3014  0.36171  0.4518  1.0000
  N   N4        1.0  0.7892000000000002  0.49871  0.322  1.0000
  C   C1        1.0  0.9938000000000001  0.5357  0.3751  1.0000
  C   C2        1.0  0.8717  0.5496  0.3522  1.0000
  C   C3        1.0  0.15190000000000003  0.4494000000000001  0.412  1.0000
  C   C4        1.0  0.18370000000000006  0.5809  0.4073  1.0000
  C   C5        1.0  0.036499999999999956  0.4633  0.38889999999999997  1.0000
  H   H1        1.0  0.9873000000000003  0.42390000000000005  0.38259999999999994  1.0000
  C   C6        1.0  0.06709999999999995  0.5939  0.3823999999999999  1.0000
  H   H2        1.0  0.03859999999999997  0.642  0.3706  1.0000
  C   C7        1.0  0.2613  0.6451  0.41799999999999987  1.0000
  C   C8        1.0  0.1962  0.371  0.4291  1.0000
  C   C9        1.0  0.22520000000000007  0.5085  0.4222  1.0000
  H   H3        1.0  0.3027000000000001  0.4997  0.43899999999999995  1.0000
  O   O4        1.0  0.2184  0.7075  0.38552999999999993  1.0000
  Cd  Cd2       1.0  0.6094000000000002  0.77123  0.057179999999999995  1.0000
  O   O5        1.0  0.626  0.81981  0.9201999999999998  1.0000
  O   O6        1.0  0.8702300000000001  0.13544  0.9620399999999999  1.0000
  N   N5        1.0  0.21660000000000007  0.10564  0.8323  1.0000
  N   N6        1.0  0.19319999999999993  0.03577  0.8097999999999997  1.0000
  N   N7        1.0  0.33010000000000006  0.11623  0.8598  1.0000
  O   O7        1.0  0.8014  0.86171  0.9518  1.0000
  N   N8        1.0  0.28919999999999996  0.9987100000000001  0.8219999999999998  1.0000
  C   C10       1.0  0.4938000000000001  0.0357  0.8751  1.0000
  C   C11       1.0  0.37170000000000003  0.049600000000000005  0.8522  1.0000
  C   C12       1.0  0.6519000000000003  0.9494  0.9119999999999998  1.0000
  C   C13       1.0  0.6837  0.0809  0.9073  1.0000
  C   C14       1.0  0.5365  0.9633  0.8889  1.0000
  H   H4        1.0  0.4873  0.9239  0.8826  1.0000
  C   C15       1.0  0.5671  0.0939  0.8824  1.0000
  H   H5        1.0  0.5386  0.142  0.8705999999999999  1.0000
  C   C16       1.0  0.7613  0.1451  0.918  1.0000
  C   C17       1.0  0.6962  0.8710000000000001  0.9290999999999999  1.0000
  C   C18       1.0  0.7252000000000002  0.0085  0.9221999999999998  1.0000
  H   H6        1.0  0.8027000000000001  0.9997  0.9389999999999997  1.0000
  O   O8        1.0  0.7184000000000003  0.20750000000000002  0.88553  1.0000
  Cd  Cd3       1.0  0.8906000000000002  0.27123  0.94282  1.0000
  O   O9        1.0  0.874  0.31981  0.0798  1.0000
  O   O10       1.0  0.62977  0.63544  0.03796  1.0000
  N   N9        1.0  0.2834  0.60564  0.16769999999999993  1.0000
  N   N10       1.0  0.3068  0.5357700000000001  0.1902  1.0000
  N   N11       1.0  0.1699  0.61623  0.1402  1.0000
  O   O11       1.0  0.6986000000000001  0.36171  0.0482  1.0000
  N   N12       1.0  0.21080000000000004  0.49871  0.178  1.0000
  C   C19       1.0  0.006199999999999996  0.5357  0.1249  1.0000
  C   C20       1.0  0.1283  0.5496  0.1478  1.0000
  C   C21       1.0  0.8481  0.4494000000000001  0.088  1.0000
  C   C22       1.0  0.8163000000000001  0.5809  0.0927  1.0000
  C   C23       1.0  0.9635000000000001  0.4633  0.1111  1.0000
  H   H7        1.0  0.0127  0.42390000000000005  0.1174  1.0000
  C   C24       1.0  0.9329000000000002  0.5939  0.1176  1.0000
  H   H8        1.0  0.9614  0.642  0.1294  1.0000
  C   C25       1.0  0.7387000000000002  0.6451  0.08199999999999999  1.0000
  C   C26       1.0  0.8038000000000002  0.371  0.0709  1.0000
  C   C27       1.0  0.7748  0.5085  0.0778  1.0000
  H   H9        1.0  0.6973  0.4997  0.061  1.0000
  O   O12       1.0  0.7816  0.7075  0.11446999999999999  1.0000
  Cd  Cd4       1.0  0.3906  0.77123  0.44281999999999994  1.0000
  O   O13       1.0  0.37400000000000005  0.81981  0.5798  1.0000
  O   O14       1.0  0.12977000000000005  0.13544  0.53796  1.0000
  N   N13       1.0  0.7834  0.10564  0.6677  1.0000
  N   N14       1.0  0.8068  0.03577  0.6902  1.0000
  N   N15       1.0  0.6699  0.11623  0.6402  1.0000
  O   O15       1.0  0.1986  0.86171  0.5482  1.0000
  N   N16       1.0  0.7108  0.9987100000000001  0.678  1.0000
  C   C28       1.0  0.5062  0.0357  0.6248999999999999  1.0000
  C   C29       1.0  0.6282999999999999  0.049600000000000005  0.6477999999999999  1.0000
  C   C30       1.0  0.3481  0.9494  0.588  1.0000
  C   C31       1.0  0.31629999999999997  0.0809  0.5926999999999999  1.0000
  C   C32       1.0  0.4635  0.9633  0.6111  1.0000
  H   H10       1.0  0.5127  0.9239  0.6174  1.0000
  C   C33       1.0  0.43289999999999995  0.0939  0.6175999999999998  1.0000
  H   H11       1.0  0.4614  0.142  0.6294  1.0000
  C   C34       1.0  0.2387  0.1451  0.582  1.0000
  C   C35       1.0  0.30380000000000007  0.8710000000000001  0.5709  1.0000
  C   C36       1.0  0.27480000000000004  0.0085  0.5777999999999999  1.0000
  H   H12       1.0  0.19730000000000003  0.9997  0.561  1.0000
  O   O16       1.0  0.28159999999999996  0.20750000000000002  0.6144699999999998  1.0000
  Cd  Cd5       1.0  0.8906000000000001  0.72877  0.44281999999999994  1.0000
  O   O17       1.0  0.874  0.68019  0.5798  1.0000
  O   O18       1.0  0.62977  0.36456  0.53796  1.0000
  N   N17       1.0  0.28339999999999993  0.39436  0.6677  1.0000
  N   N18       1.0  0.3068  0.46423  0.6902  1.0000
  N   N19       1.0  0.1699000000000001  0.38377  0.6402  1.0000
  O   O19       1.0  0.6986000000000001  0.63829  0.5482  1.0000
  N   N20       1.0  0.21080000000000004  0.50129  0.678  1.0000
  C   C37       1.0  0.00619999999999997  0.4643  0.6248999999999999  1.0000
  C   C38       1.0  0.12829999999999994  0.4504  0.6477999999999999  1.0000
  C   C39       1.0  0.8481  0.5506  0.588  1.0000
  C   C40       1.0  0.8163000000000001  0.4191  0.5926999999999999  1.0000
  C   C41       1.0  0.9635000000000001  0.5367  0.6111  1.0000
  H   H13       1.0  0.012700000000000017  0.5761  0.6174  1.0000
  C   C42       1.0  0.9329000000000002  0.4061  0.6175999999999998  1.0000
  H   H14       1.0  0.9614  0.358  0.6294  1.0000
  C   C43       1.0  0.7387000000000002  0.3549  0.582  1.0000
  C   C44       1.0  0.8038000000000002  0.629  0.5709  1.0000
  C   C45       1.0  0.7748  0.49150000000000005  0.5777999999999999  1.0000
  H   H15       1.0  0.6973  0.5003  0.561  1.0000
  O   O20       1.0  0.7816  0.2925  0.6144699999999998  1.0000
  Cd  Cd6       1.0  0.3906  0.22877000000000003  0.94282  1.0000
  O   O21       1.0  0.37400000000000005  0.18019  0.0798  1.0000
  O   O22       1.0  0.12977000000000002  0.86456  0.03796  1.0000
  N   N21       1.0  0.7834  0.89436  0.16769999999999993  1.0000
  N   N22       1.0  0.8068  0.96423  0.1902  1.0000
  N   N23       1.0  0.6699  0.88377  0.1402  1.0000
  O   O23       1.0  0.1986  0.13829000000000002  0.0482  1.0000
  N   N24       1.0  0.7108  0.00129  0.178  1.0000
  C   C46       1.0  0.5062  0.9643  0.1249  1.0000
  C   C47       1.0  0.6283  0.9504  0.1478  1.0000
  C   C48       1.0  0.3481  0.0506  0.088  1.0000
  C   C49       1.0  0.3163  0.9191000000000001  0.0927  1.0000
  C   C50       1.0  0.4635  0.0367  0.1111  1.0000
  H   H16       1.0  0.5127  0.0761  0.1174  1.0000
  C   C51       1.0  0.4329  0.9061000000000001  0.1176  1.0000
  H   H17       1.0  0.4614  0.858  0.1294  1.0000
  C   C52       1.0  0.2387  0.8549000000000001  0.08199999999999999  1.0000
  C   C53       1.0  0.30380000000000007  0.12900000000000003  0.0709  1.0000
  C   C54       1.0  0.2748  0.9915  0.0778  1.0000
  H   H18       1.0  0.19730000000000006  0.00030000000000000003  0.061  1.0000
  O   O24       1.0  0.2816  0.7925  0.11446999999999999  1.0000
  Cd  Cd7       1.0  0.10940000000000003  0.72877  0.057179999999999995  1.0000
  O   O25       1.0  0.12599999999999992  0.68019  0.9201999999999998  1.0000
  O   O26       1.0  0.37022999999999995  0.36456  0.9620399999999999  1.0000
  N   N25       1.0  0.7166000000000002  0.39436  0.8323  1.0000
  N   N26       1.0  0.6932000000000001  0.46423  0.8097999999999997  1.0000
  N   N27       1.0  0.8301000000000002  0.38377  0.8598  1.0000
  O   O27       1.0  0.3014  0.63829  0.9518  1.0000
  N   N28       1.0  0.7892000000000002  0.50129  0.8219999999999998  1.0000
  C   C55       1.0  0.9938  0.4643  0.8751  1.0000
  C   C56       1.0  0.8717000000000003  0.4504  0.8522  1.0000
  C   C57       1.0  0.15189999999999998  0.5506  0.9119999999999998  1.0000
  C   C58       1.0  0.1837  0.4191  0.9073  1.0000
  C   C59       1.0  0.03649999999999999  0.5367  0.8889  1.0000
  H   H19       1.0  0.9873000000000002  0.5761  0.8826  1.0000
  C   C60       1.0  0.06710000000000002  0.4061  0.8824  1.0000
  H   H20       1.0  0.0385999999999999  0.358  0.8705999999999999  1.0000
  C   C61       1.0  0.2613000000000001  0.3549  0.918  1.0000
  C   C62       1.0  0.1962  0.629  0.9290999999999999  1.0000
  C   C63       1.0  0.2252  0.49150000000000005  0.9221999999999998  1.0000
  H   H21       1.0  0.3026999999999999  0.5003  0.9389999999999997  1.0000
  O   O28       1.0  0.2184  0.2925  0.88553  1.0000
  Cd  Cd8       1.0  0.6094000000000002  0.22877000000000003  0.55718  1.0000
  O   O29       1.0  0.6260000000000001  0.18019  0.42019999999999996  1.0000
  O   O30       1.0  0.8702300000000001  0.86456  0.46204  1.0000
  N   N29       1.0  0.21660000000000001  0.89436  0.33229999999999993  1.0000
  N   N30       1.0  0.19320000000000004  0.96423  0.30979999999999996  1.0000
  N   N31       1.0  0.33010000000000006  0.88377  0.3598  1.0000
  O   O31       1.0  0.8014  0.13829000000000002  0.4518  1.0000
  N   N32       1.0  0.2892  0.00129  0.322  1.0000
  C   C64       1.0  0.4938000000000001  0.9643  0.3751  1.0000
  C   C65       1.0  0.37170000000000003  0.9504  0.3522  1.0000
  C   C66       1.0  0.6519000000000003  0.0506  0.412  1.0000
  C   C67       1.0  0.6837  0.9191000000000001  0.4073  1.0000
  C   C68       1.0  0.5365  0.0367  0.38889999999999997  1.0000
  H   H22       1.0  0.4873  0.0761  0.38259999999999994  1.0000
  C   C69       1.0  0.5670999999999999  0.9061000000000001  0.3823999999999999  1.0000
  H   H23       1.0  0.5386  0.858  0.3706  1.0000
  C   C70       1.0  0.7613  0.8549000000000001  0.41799999999999987  1.0000
  C   C71       1.0  0.6962  0.12900000000000003  0.4291  1.0000
  C   C72       1.0  0.7252000000000002  0.9915  0.4222  1.0000
  H   H24       1.0  0.8027000000000002  0.00030000000000000003  0.43899999999999995  1.0000
  O   O32       1.0  0.7184000000000003  0.7925  0.38552999999999993  1.0000
  Cd  Cd9       1.0  0.5  0.50328  0.25  1.0000
  Cd  Cd10      1.0  0.0  0.00328  0.75  1.0000
  Cd  Cd11      1.0  0.5  0.49672000000000005  0.75  1.0000
  Cd  Cd12      1.0  0.0  0.99672  0.25  1.0000
