data_image0
_chemical_formula_structural       Mg2O8N2C3HCHC3HC3HCHC3HMg2O8N2C3HCHC3HC3HCHC3HMg2O8N2C3HCHC3HC3HCHC3HMg2O8N2C3HCHC3HC3HCHC3H
_chemical_formula_sum              "Mg8 O32 N8 C56 H24"
_cell_length_a       13.7442
_cell_length_b       14.2887
_cell_length_c       14.1178
_cell_angle_alpha    90.0
_cell_angle_beta     104.91199999999999
_cell_angle_gamma    90.0

_space_group_name_H-M_alt    "P 1"
_space_group_IT_number       1

loop_
  _space_group_symop_operation_xyz
  'x, y, z'

loop_
  _atom_site_type_symbol
  _atom_site_label
  _atom_site_symmetry_multiplicity
  _atom_site_fract_x
  _atom_site_fract_y
  _atom_site_fract_z
  _atom_site_occupancy
  Mg  Mg1       1.0  0.12528999999999998  0.20877  0.5173799999999998  1.0000
  Mg  Mg2       1.0  0.38341000000000003  0.09888  0.55142  1.0000
  O   O1        1.0  0.19145  0.22052  0.40448  1.0000
  O   O2        1.0  0.35618  0.18963  0.43697999999999987  1.0000
  O   O3        1.0  0.13693  0.49403  0.046129999999999984  1.0000
  O   O4        1.0  0.03124  0.41132  0.10807  1.0000
  O   O5        1.0  0.38565  0.2013  0.6509199999999998  1.0000
  O   O6        1.0  0.2371  0.27378  0.61779  1.0000
  O   O7        1.0  0.31727999999999995  0.5745899999999999  0.9577199999999998  1.0000
  O   O8        1.0  0.18032  0.5092  0.8657999999999999  1.0000
  N   N1        1.0  0.3711599999999999  0.31887  0.17735  1.0000
  N   N2        1.0  0.48396  0.34107  0.91229  1.0000
  C   C1        1.0  0.27576  0.22438  0.38628  1.0000
  C   C2        1.0  0.2799  0.27669  0.29474999999999996  1.0000
  C   C3        1.0  0.36424  0.2739  0.2582  1.0000
  H   H1        1.0  0.4192  0.2387  0.2919  1.0000
  C   C4        1.0  0.29223  0.3709  0.13069  1.0000
  H   H2        1.0  0.2972  0.4046  0.07579999999999999  1.0000
  C   C5        1.0  0.20354  0.37720999999999993  0.15987999999999994  1.0000
  C   C6        1.0  0.11644999999999997  0.43276  0.09950999999999997  1.0000
  C   C7        1.0  0.19757  0.32831  0.24280999999999997  1.0000
  H   H3        1.0  0.1387  0.33  0.2637  1.0000
  C   C8        1.0  0.32456  0.25948  0.66813  1.0000
  C   C9        1.0  0.35959  0.31742  0.75953  1.0000
  C   C10       1.0  0.45060999999999996  0.2971  0.8259299999999998  1.0000
  H   H4        1.0  0.4907  0.2505  0.8098  1.0000
  C   C11       1.0  0.42648  0.40988  0.9323099999999998  1.0000
  H   H5        1.0  0.44839999999999997  0.4412  0.9916999999999998  1.0000
  C   C12       1.0  0.33553  0.4373  0.8691  1.0000
  C   C13       1.0  0.27399999999999997  0.5134  0.8988199999999998  1.0000
  C   C14       1.0  0.30123999999999995  0.38875  0.78197  1.0000
  H   H6        1.0  0.2397  0.4039  0.7390999999999999  1.0000
  Mg  Mg3       1.0  0.37470999999999993  0.70877  0.9826199999999998  1.0000
  Mg  Mg4       1.0  0.11659  0.59888  0.9485799999999999  1.0000
  O   O9        1.0  0.30855  0.72052  0.09551999999999997  1.0000
  O   O10       1.0  0.14382000000000006  0.68963  0.06302  1.0000
  O   O11       1.0  0.36307  0.99403  0.45386999999999994  1.0000
  O   O12       1.0  0.46876  0.91132  0.39193  1.0000
  O   O13       1.0  0.11434999999999995  0.7012999999999999  0.8490799999999997  1.0000
  O   O14       1.0  0.2629  0.77378  0.8822099999999999  1.0000
  O   O15       1.0  0.18271999999999994  0.07459  0.5422799999999999  1.0000
  O   O16       1.0  0.31968  0.0092  0.6342  1.0000
  N   N3        1.0  0.12883999999999995  0.81887  0.3226499999999999  1.0000
  N   N4        1.0  0.016039999999999964  0.8410699999999998  0.58771  1.0000
  C   C15       1.0  0.22424  0.72438  0.11372  1.0000
  C   C16       1.0  0.22009999999999993  0.77669  0.20524999999999993  1.0000
  C   C17       1.0  0.13575999999999996  0.7739  0.24179999999999993  1.0000
  H   H7        1.0  0.0808  0.7386999999999999  0.2081  1.0000
  C   C18       1.0  0.20777  0.8709  0.36931  1.0000
  H   H8        1.0  0.2028  0.9046  0.4242  1.0000
  C   C19       1.0  0.29646  0.87721  0.3401199999999999  1.0000
  C   C20       1.0  0.38355  0.93276  0.40049  1.0000
  C   C21       1.0  0.30243  0.8283099999999999  0.25719  1.0000
  H   H9        1.0  0.3613  0.83  0.23629999999999995  1.0000
  C   C22       1.0  0.17544  0.75948  0.83187  1.0000
  C   C23       1.0  0.14041  0.81742  0.74047  1.0000
  C   C24       1.0  0.04938999999999997  0.7971  0.6740699999999998  1.0000
  H   H10       1.0  0.009300000000000003  0.7505  0.6902  1.0000
  C   C25       1.0  0.07351999999999996  0.90988  0.5676899999999999  1.0000
  H   H11       1.0  0.05159999999999998  0.9412  0.5082999999999999  1.0000
  C   C26       1.0  0.16447000000000003  0.9373  0.6309  1.0000
  C   C27       1.0  0.226  0.013399999999999999  0.60118  1.0000
  C   C28       1.0  0.19876  0.88875  0.71803  1.0000
  H   H12       1.0  0.26029999999999986  0.9038999999999999  0.7608999999999998  1.0000
  Mg  Mg5       1.0  0.8747100000000002  0.79123  0.48262  1.0000
  Mg  Mg6       1.0  0.61659  0.9011199999999998  0.44858  1.0000
  O   O17       1.0  0.80855  0.77948  0.59552  1.0000
  O   O18       1.0  0.6438199999999998  0.81037  0.56302  1.0000
  O   O19       1.0  0.86307  0.50597  0.9538699999999998  1.0000
  O   O20       1.0  0.9687599999999997  0.58868  0.89193  1.0000
  O   O21       1.0  0.61435  0.7987  0.34908  1.0000
  O   O22       1.0  0.7629  0.72622  0.38221  1.0000
  O   O23       1.0  0.68272  0.42541  0.04228  1.0000
  O   O24       1.0  0.81968  0.4908  0.1342  1.0000
  N   N5        1.0  0.62884  0.68113  0.8226499999999998  1.0000
  N   N6        1.0  0.51604  0.65893  0.08770999999999998  1.0000
  C   C29       1.0  0.72424  0.77562  0.61372  1.0000
  C   C30       1.0  0.7201  0.72331  0.70525  1.0000
  C   C31       1.0  0.6357599999999999  0.7261  0.7418  1.0000
  H   H13       1.0  0.5808  0.7613  0.7081  1.0000
  C   C32       1.0  0.70777  0.6291  0.86931  1.0000
  H   H14       1.0  0.7028  0.5954  0.9242  1.0000
  C   C33       1.0  0.79646  0.62279  0.8401199999999998  1.0000
  C   C34       1.0  0.8835499999999998  0.56724  0.9004899999999998  1.0000
  C   C35       1.0  0.80243  0.67169  0.75719  1.0000
  H   H15       1.0  0.8613  0.67  0.7363  1.0000
  C   C36       1.0  0.6754400000000002  0.74052  0.33187  1.0000
  C   C37       1.0  0.64041  0.68258  0.24047  1.0000
  C   C38       1.0  0.54939  0.7029  0.17406999999999995  1.0000
  H   H16       1.0  0.5092999999999999  0.7495  0.19019999999999995  1.0000
  C   C39       1.0  0.57352  0.59012  0.06769  1.0000
  H   H17       1.0  0.5516  0.5588  0.0083  1.0000
  C   C40       1.0  0.66447  0.5627  0.13089999999999996  1.0000
  C   C41       1.0  0.726  0.4866  0.10117999999999998  1.0000
  C   C42       1.0  0.69876  0.61125  0.21803  1.0000
  H   H18       1.0  0.7603  0.5961  0.26089999999999997  1.0000
  Mg  Mg7       1.0  0.6252899999999999  0.29123  0.01738  1.0000
  Mg  Mg8       1.0  0.88341  0.40112  0.05142  1.0000
  O   O25       1.0  0.6914499999999999  0.27948  0.9044799999999998  1.0000
  O   O26       1.0  0.85618  0.31037  0.93698  1.0000
  O   O27       1.0  0.63693  0.00597  0.54613  1.0000
  O   O28       1.0  0.5312399999999998  0.08868  0.60807  1.0000
  O   O29       1.0  0.8856499999999999  0.2987  0.15092  1.0000
  O   O30       1.0  0.7371  0.22621999999999998  0.11779  1.0000
  O   O31       1.0  0.81728  0.92541  0.45772  1.0000
  O   O32       1.0  0.68032  0.9908  0.3658  1.0000
  N   N7        1.0  0.87116  0.18113  0.6773499999999999  1.0000
  N   N8        1.0  0.98396  0.15893  0.41229  1.0000
  C   C43       1.0  0.77576  0.27562  0.8862799999999998  1.0000
  C   C44       1.0  0.7799  0.22331  0.79475  1.0000
  C   C45       1.0  0.86424  0.2261  0.7582  1.0000
  H   H19       1.0  0.9192  0.2613  0.7919  1.0000
  C   C46       1.0  0.79223  0.1291  0.63069  1.0000
  H   H20       1.0  0.7972  0.0954  0.5758  1.0000
  C   C47       1.0  0.70354  0.12279  0.6598799999999998  1.0000
  C   C48       1.0  0.6164499999999999  0.06724  0.5995099999999998  1.0000
  C   C49       1.0  0.69757  0.17168999999999998  0.74281  1.0000
  H   H21       1.0  0.6387  0.17  0.7637  1.0000
  C   C50       1.0  0.82456  0.24052  0.16812999999999995  1.0000
  C   C51       1.0  0.85959  0.18258  0.2595299999999999  1.0000
  C   C52       1.0  0.95061  0.20289999999999997  0.32592999999999994  1.0000
  H   H22       1.0  0.9906999999999999  0.2495  0.3098  1.0000
  C   C53       1.0  0.92648  0.09012  0.43230999999999997  1.0000
  H   H23       1.0  0.9484  0.0588  0.4917  1.0000
  C   C54       1.0  0.83553  0.0627  0.3690999999999999  1.0000
  C   C55       1.0  0.774  0.9866  0.39882  1.0000
  C   C56       1.0  0.8012400000000001  0.11125  0.28197  1.0000
  H   H24       1.0  0.7397  0.0961  0.23909999999999998  1.0000
