data_image0
_chemical_formula_structural       PrCu4I4O6N3CHCHC2HCHC2HCHC2HCHC2HCHC2HCHCPrCu4I4O6N3CHCHC2HCHC2HCHC2HCHC2HCHC2HCHCPrCu4I4O6N3CHCHC2HCHC2HCHC2HCHC2HCHC2HCHCPrCu4I4O6N3CHCHC2HCHC2HCHC2HCHC2HCHC2HCHC
_chemical_formula_sum              "Pr4 Cu16 I16 O24 N12 C72 H48"
_cell_length_a       15.289
_cell_length_b       8.168
_cell_length_c       28.995
_cell_angle_alpha    90.0
_cell_angle_beta     100.646
_cell_angle_gamma    90.0

_symmetry_space_group_name_H-M    'P 1'
_symmetry_Int_Tables_number       1

loop_
  _symmetry_equiv_pos_as_xyz
  'x,y,z'

loop_
  _atom_site_type_symbol
  _atom_site_label
  _atom_site_symmetry_multiplicity
  _atom_site_fract_x
  _atom_site_fract_y
  _atom_site_fract_z
  _atom_site_occupancy
  Pr  Pr1       1.0  0.55017  0.25071  0.01181  1.0000
  Cu  Cu1       1.0  0.9984300000000003  0.56998  0.17016000000000006  1.0000
  Cu  Cu2       1.0  0.14509000000000005  0.70179  0.21415  1.0000
  Cu  Cu3       1.0  0.42503  0.92063  0.25049  1.0000
  Cu  Cu4       1.0  0.35247  0.89653  0.32433  1.0000
  I   I1        1.0  0.12366  0.67954  0.12244  1.0000
  I   I2        1.0  0.005160000000000009  0.71975  0.25432  1.0000
  I   I3        1.0  0.2472600000000001  0.96087  0.24098000000000006  1.0000
  I   I4        1.0  0.50912  0.74941  0.32853  1.0000
  O   O1        1.0  0.3589  0.9579000000000002  0.94246  1.0000
  O   O2        1.0  0.42110000000000003  0.2068  0.9506000000000001  1.0000
  O   O3        1.0  0.5666  0.3747  0.09308000000000002  1.0000
  O   O4        1.0  0.4646000000000001  0.5059  0.04332000000000001  1.0000
  O   O5        1.0  0.6413000000000001  0.1259  0.9605000000000002  1.0000
  O   O6        1.0  0.5522  0.9123000000000002  0.9547  1.0000
  N   N1        1.0  0.1155  0.3283  0.8641  1.0000
  N   N2        1.0  0.4489  0.7716  0.19820000000000004  1.0000
  N   N3        1.0  0.7781000000000001  0.7408  0.8603000000000002  1.0000
  C   C1        1.0  0.12049999999999998  0.1699  0.8744  1.0000
  H   H1        1.0  0.0687000000000001  0.1048  0.8652000000000002  1.0000
  C   C2        1.0  0.19680000000000003  0.0943  0.8976  1.0000
  H   H2        1.0  0.19630000000000006  0.9808000000000001  0.9048000000000003  1.0000
  C   C3        1.0  0.27340000000000003  0.184  0.9103000000000002  1.0000
  C   C4        1.0  0.2695  0.3481  0.8983  1.0000
  H   H3        1.0  0.3211  0.4148  0.9057  1.0000
  C   C5        1.0  0.19010000000000005  0.4143  0.8754  1.0000
  H   H4        1.0  0.18880000000000002  0.5271  0.8673000000000001  1.0000
  C   C6        1.0  0.35770000000000013  0.10920000000000003  0.9362000000000001  1.0000
  C   C7        1.0  0.5275  0.6983  0.20070000000000002  1.0000
  H   H5        1.0  0.5714  0.7128  0.22810000000000005  1.0000
  C   C8        1.0  0.5478  0.6018  0.16460000000000005  1.0000
  H   H6        1.0  0.6042  0.5499  0.1678  1.0000
  C   C9        1.0  0.4850000000000001  0.5821  0.1243  1.0000
  C   C10       1.0  0.4046  0.6541  0.1223  1.0000
  H   H7        1.0  0.35949999999999993  0.6403  0.0953  1.0000
  C   C11       1.0  0.3878  0.7482  0.1597  1.0000
  H   H8        1.0  0.3308  0.7973  0.1576  1.0000
  C   C12       1.0  0.5073  0.4804  0.08460000000000002  1.0000
  C   C13       1.0  0.8124  0.858  0.8908  1.0000
  H   H9        1.0  0.8736000000000003  0.8848  0.8935000000000002  1.0000
  C   C14       1.0  0.7628000000000003  0.9409  0.9183000000000002  1.0000
  H   H10       1.0  0.7893  0.0236  0.9393  1.0000
  C   C15       1.0  0.6742  0.9025  0.9148000000000002  1.0000
  C   C16       1.0  0.6368  0.788  0.8821000000000002  1.0000
  H   H11       1.0  0.5751  0.7632  0.8776000000000003  1.0000
  C   C17       1.0  0.6915000000000003  0.7103  0.8559000000000001  1.0000
  H   H12       1.0  0.6658  0.6308  0.8335000000000002  1.0000
  C   C18       1.0  0.6187  0.9862  0.9457  1.0000
  Pr  Pr2       1.0  0.9498300000000004  0.75071  0.48819000000000007  1.0000
  Cu  Cu5       1.0  0.50157  0.06998  0.32984  1.0000
  Cu  Cu6       1.0  0.35491  0.20179  0.28585  1.0000
  Cu  Cu7       1.0  0.07497000000000001  0.42063  0.24951000000000007  1.0000
  Cu  Cu8       1.0  0.14753  0.39653  0.17567  1.0000
  I   I5        1.0  0.37634  0.17954  0.3775600000000001  1.0000
  I   I6        1.0  0.49484000000000006  0.21975  0.24568000000000006  1.0000
  I   I7        1.0  0.25274  0.46087  0.25902  1.0000
  I   I8        1.0  0.99088  0.24941  0.17147  1.0000
  O   O7        1.0  0.1411  0.4579  0.55754  1.0000
  O   O8        1.0  0.07890000000000003  0.7068  0.5494  1.0000
  O   O9        1.0  0.9334  0.8747  0.40692  1.0000
  O   O10       1.0  0.03540000000000004  0.0059  0.4566800000000001  1.0000
  O   O11       1.0  0.8587000000000002  0.6259000000000001  0.5395  1.0000
  O   O12       1.0  0.9478  0.4123  0.5453  1.0000
  N   N4        1.0  0.3845000000000001  0.8283000000000003  0.6359  1.0000
  N   N5        1.0  0.05110000000000001  0.2716  0.3018  1.0000
  N   N6        1.0  0.7219  0.2408  0.6397  1.0000
  C   C19       1.0  0.37950000000000006  0.6699  0.6256000000000003  1.0000
  H   H13       1.0  0.4313000000000001  0.6048  0.6348  1.0000
  C   C20       1.0  0.3032000000000001  0.5943000000000003  0.6024000000000002  1.0000
  H   H14       1.0  0.3037  0.4808  0.5952  1.0000
  C   C21       1.0  0.2266  0.684  0.5897  1.0000
  C   C22       1.0  0.2305  0.8481  0.6017  1.0000
  H   H15       1.0  0.1789  0.9148  0.5943  1.0000
  C   C23       1.0  0.30990000000000023  0.9143  0.6246000000000003  1.0000
  H   H16       1.0  0.3112  0.0271  0.6327  1.0000
  C   C24       1.0  0.1423  0.6092  0.5638  1.0000
  C   C25       1.0  0.9725  0.1983  0.2993  1.0000
  H   H17       1.0  0.9286  0.2128  0.2719  1.0000
  C   C26       1.0  0.9522  0.1018  0.3354000000000001  1.0000
  H   H18       1.0  0.8958  0.0499  0.33220000000000005  1.0000
  C   C27       1.0  0.015000000000000005  0.0821  0.3757  1.0000
  C   C28       1.0  0.09540000000000004  0.1541  0.3777  1.0000
  H   H19       1.0  0.1405  0.1403  0.4047  1.0000
  C   C29       1.0  0.1122  0.2482  0.3403  1.0000
  H   H20       1.0  0.1692  0.2973  0.3424  1.0000
  C   C30       1.0  0.9927000000000002  0.9804000000000002  0.4154  1.0000
  C   C31       1.0  0.6876000000000002  0.358  0.6092  1.0000
  H   H21       1.0  0.6264  0.3848  0.6065  1.0000
  C   C32       1.0  0.7372  0.4409  0.5817  1.0000
  H   H22       1.0  0.7107000000000002  0.5236  0.5607  1.0000
  C   C33       1.0  0.8258000000000002  0.4025  0.5852  1.0000
  C   C34       1.0  0.8632  0.2880000000000001  0.6179  1.0000
  H   H23       1.0  0.9249000000000003  0.2632  0.6224  1.0000
  C   C35       1.0  0.8085  0.2103  0.6441  1.0000
  H   H24       1.0  0.8342  0.1308  0.6665  1.0000
  C   C36       1.0  0.8813  0.4862  0.5543  1.0000
  Pr  Pr3       1.0  0.44983000000000006  0.74929  0.9881900000000002  1.0000
  Cu  Cu9       1.0  0.0015699999999999712  0.4300200000000001  0.82984  1.0000
  Cu  Cu10      1.0  0.8549100000000002  0.2982100000000001  0.7858500000000003  1.0000
  Cu  Cu11      1.0  0.5749700000000001  0.07937000000000001  0.74951  1.0000
  Cu  Cu12      1.0  0.64753  0.10347  0.67567  1.0000
  I   I9        1.0  0.8763400000000002  0.32046  0.8775600000000002  1.0000
  I   I10       1.0  0.99484  0.28025  0.7456800000000002  1.0000
  I   I11       1.0  0.7527400000000001  0.03913000000000001  0.7590200000000003  1.0000
  I   I12       1.0  0.4908800000000001  0.25059  0.67147  1.0000
  O   O13       1.0  0.6411  0.042100000000000005  0.05754  1.0000
  O   O14       1.0  0.5789  0.7932  0.049400000000000006  1.0000
  O   O15       1.0  0.4334000000000001  0.6253  0.9069200000000002  1.0000
  O   O16       1.0  0.5354  0.49410000000000004  0.95668  1.0000
  O   O17       1.0  0.3587  0.8741  0.0395  1.0000
  O   O18       1.0  0.4478000000000001  0.0877  0.045300000000000014  1.0000
  N   N7        1.0  0.8845  0.6717  0.1359  1.0000
  N   N8        1.0  0.5511  0.2284  0.8018000000000002  1.0000
  N   N9        1.0  0.2219  0.2592  0.1397  1.0000
  C   C37       1.0  0.8795000000000002  0.8301  0.1256  1.0000
  H   H25       1.0  0.9313  0.8952  0.1348  1.0000
  C   C38       1.0  0.8032  0.9057  0.1024  1.0000
  H   H26       1.0  0.8037  0.0192  0.09520000000000002  1.0000
  C   C39       1.0  0.7266  0.816  0.0897  1.0000
  C   C40       1.0  0.7305  0.6519  0.10170000000000003  1.0000
  H   H27       1.0  0.6789  0.5852000000000003  0.0943  1.0000
  C   C41       1.0  0.8099  0.5857  0.1246  1.0000
  H   H28       1.0  0.8112  0.4729  0.1327  1.0000
  C   C42       1.0  0.6423  0.8908  0.0638  1.0000
  C   C43       1.0  0.4725  0.30170000000000013  0.7993000000000001  1.0000
  H   H29       1.0  0.42860000000000015  0.2872  0.7719000000000003  1.0000
  C   C44       1.0  0.4522  0.3982000000000001  0.8354000000000003  1.0000
  H   H30       1.0  0.3958  0.4501  0.8322  1.0000
  C   C45       1.0  0.515  0.4179  0.8757000000000001  1.0000
  C   C46       1.0  0.5954000000000002  0.3459000000000001  0.8777000000000001  1.0000
  H   H31       1.0  0.6405  0.3597  0.9047  1.0000
  C   C47       1.0  0.6122  0.2518  0.8403  1.0000
  H   H32       1.0  0.6692000000000001  0.2027  0.8424000000000003  1.0000
  C   C48       1.0  0.4927000000000001  0.5196  0.9154000000000001  1.0000
  C   C49       1.0  0.1876  0.142  0.10920000000000003  1.0000
  H   H33       1.0  0.1264  0.1152  0.1065  1.0000
  C   C50       1.0  0.23720000000000005  0.0591  0.0817  1.0000
  H   H34       1.0  0.2107  0.9764  0.0607  1.0000
  C   C51       1.0  0.3258  0.0975  0.0852  1.0000
  C   C52       1.0  0.3632  0.212  0.1179  1.0000
  H   H35       1.0  0.4249  0.2368  0.1224  1.0000
  C   C53       1.0  0.3085  0.2897  0.1441  1.0000
  H   H36       1.0  0.3342000000000001  0.3692  0.1665  1.0000
  C   C54       1.0  0.3813  0.0138  0.0543  1.0000
  Pr  Pr4       1.0  0.05017000000000003  0.24929000000000004  0.51181  1.0000
  Cu  Cu13      1.0  0.49843  0.93002  0.67016  1.0000
  Cu  Cu14      1.0  0.64509  0.79821  0.71415  1.0000
  Cu  Cu15      1.0  0.92503  0.5793700000000002  0.75049  1.0000
  Cu  Cu16      1.0  0.8524700000000001  0.60347  0.82433  1.0000
  I   I13       1.0  0.62366  0.82046  0.62244  1.0000
  I   I14       1.0  0.5051600000000003  0.78025  0.75432  1.0000
  I   I15       1.0  0.74726  0.53913  0.74098  1.0000
  I   I16       1.0  0.009120000000000121  0.75059  0.8285300000000002  1.0000
  O   O19       1.0  0.8588999999999999  0.5421  0.44246  1.0000
  O   O20       1.0  0.9211  0.2932  0.4506  1.0000
  O   O21       1.0  0.06660000000000002  0.1253  0.59308  1.0000
  O   O22       1.0  0.9646  0.9941000000000001  0.54332  1.0000
  O   O23       1.0  0.1413  0.3741  0.4605  1.0000
  O   O24       1.0  0.05220000000000006  0.5877  0.4547000000000001  1.0000
  N   N10       1.0  0.6155000000000003  0.1717  0.3641  1.0000
  N   N11       1.0  0.9489  0.7284000000000003  0.6982  1.0000
  N   N12       1.0  0.2781  0.7592  0.3603  1.0000
  C   C55       1.0  0.6205  0.3301000000000001  0.3744  1.0000
  H   H37       1.0  0.5687  0.3952  0.3652  1.0000
  C   C56       1.0  0.6968000000000001  0.4057  0.3976000000000001  1.0000
  H   H38       1.0  0.6963  0.5192000000000002  0.4048000000000001  1.0000
  C   C57       1.0  0.7734000000000002  0.316  0.4103000000000001  1.0000
  C   C58       1.0  0.7695  0.1519  0.3983  1.0000
  H   H39       1.0  0.8211000000000003  0.0852  0.4057  1.0000
  C   C59       1.0  0.6901  0.0857  0.3754  1.0000
  H   H40       1.0  0.6888000000000001  0.9729  0.3673  1.0000
  C   C60       1.0  0.8577  0.3908  0.4362  1.0000
  C   C61       1.0  0.027499999999999993  0.8017  0.7007  1.0000
  H   H41       1.0  0.07140000000000006  0.7872000000000001  0.7281  1.0000
  C   C62       1.0  0.047800000000000016  0.8982  0.6646  1.0000
  H   H42       1.0  0.1042000000000001  0.9501  0.6678000000000002  1.0000
  C   C63       1.0  0.985  0.9179  0.6243  1.0000
  C   C64       1.0  0.9046000000000003  0.8459  0.6223  1.0000
  H   H43       1.0  0.8595000000000003  0.8597  0.5953  1.0000
  C   C65       1.0  0.8878  0.7518  0.6597  1.0000
  H   H44       1.0  0.8308  0.7027  0.6576  1.0000
  C   C66       1.0  0.007300000000000017  0.0196  0.5846  1.0000
  C   C67       1.0  0.3124  0.6420000000000002  0.3908  1.0000
  H   H45       1.0  0.3736  0.6152  0.3935  1.0000
  C   C68       1.0  0.2628  0.5591  0.4183  1.0000
  H   H46       1.0  0.28930000000000006  0.4764  0.43930000000000013  1.0000
  C   C69       1.0  0.1742  0.5975  0.41480000000000006  1.0000
  C   C70       1.0  0.1368  0.712  0.3821  1.0000
  H   H47       1.0  0.07510000000000004  0.7368  0.37760000000000005  1.0000
  C   C71       1.0  0.1915  0.7897000000000002  0.3559  1.0000
  H   H48       1.0  0.1658  0.8692000000000002  0.3335  1.0000
  C   C72       1.0  0.11870000000000001  0.5138  0.4457  1.0000
