data_image0
_chemical_formula_structural       BrO2C4HBrCOCHOC2CaBrO2C4HBrCOCHOC2Ca
_chemical_formula_sum              "Br4 O8 C16 H4 Ca2"
_cell_length_a       7.7834
_cell_length_b       10.1301
_cell_length_c       10.3277
_cell_angle_alpha    103.873
_cell_angle_beta     91.79699999999998
_cell_angle_gamma    90.93499999999999

_space_group_name_H-M_alt    "P 1"
_space_group_IT_number       1

loop_
  _space_group_symop_operation_xyz
  'x, y, z'

loop_
  _atom_site_type_symbol
  _atom_site_label
  _atom_site_symmetry_multiplicity
  _atom_site_fract_x
  _atom_site_fract_y
  _atom_site_fract_z
  _atom_site_occupancy
  Br  Br1       1.0  0.003740000000000002  0.21483000000000002  0.09376  1.0000
  O   O1        1.0  0.010700000000000005  0.48730000000000007  0.3542  1.0000
  O   O2        1.0  0.2692  0.5465  0.3064  1.0000
  C   C1        1.0  0.9971  0.3828  0.0436  1.0000
  C   C2        1.0  0.05780000000000001  0.5006  0.1299  1.0000
  C   C3        1.0  0.11650000000000003  0.5108  0.2729  1.0000
  C   C4        1.0  0.9396000000000002  0.38079999999999997  0.9147  1.0000
  H   H1        1.0  0.8992  0.2998  0.858  1.0000
  Br  Br2       1.0  0.17285000000000006  0.98647  0.29075  1.0000
  C   C5        1.0  0.4371000000000001  0.12279999999999998  0.47759999999999997  1.0000
  O   O3        1.0  0.4844  0.3469999999999999  0.45139999999999997  1.0000
  C   C6        1.0  0.4218  0.8779000000000001  0.4356  1.0000
  H   H2        1.0  0.3681  0.7961000000000001  0.3913  1.0000
  O   O4        1.0  0.2189  0.2843  0.48189999999999994  1.0000
  C   C7        1.0  0.3744000000000001  0.2604  0.4672  1.0000
  C   C8        1.0  0.361  0.9988  0.41489999999999994  1.0000
  Ca  Ca1       1.0  0.25016  0.5326299999999999  0.54032  1.0000
  Br  Br3       1.0  0.9962600000000003  0.78517  0.90624  1.0000
  O   O5        1.0  0.9893000000000002  0.5127  0.6458  1.0000
  O   O6        1.0  0.7308000000000002  0.4535  0.6936  1.0000
  C   C9        1.0  0.0029  0.6172  0.9564  1.0000
  C   C10       1.0  0.9422  0.4994  0.8701  1.0000
  C   C11       1.0  0.8835  0.48919999999999997  0.7271  1.0000
  C   C12       1.0  0.0604  0.6192  0.0853  1.0000
  H   H3        1.0  0.1008  0.7002  0.142  1.0000
  Br  Br4       1.0  0.82715  0.013530000000000002  0.70925  1.0000
  C   C13       1.0  0.5629  0.8772  0.5224  1.0000
  O   O7        1.0  0.5156  0.653  0.5486  1.0000
  C   C14       1.0  0.5782  0.1221  0.5644  1.0000
  H   H4        1.0  0.6319  0.2039  0.6087  1.0000
  O   O8        1.0  0.7811  0.7157  0.5181  1.0000
  C   C15       1.0  0.6256000000000003  0.7396  0.5328  1.0000
  C   C16       1.0  0.639  0.0011999999999999992  0.5851  1.0000
  Ca  Ca2       1.0  0.7498400000000002  0.46737  0.45968  1.0000
