data_image0
_chemical_formula_structural       N2C2HC2HCHCHCH3N2C2HC2HCHCHCH3CdN2C2HC2HCHCHCH3N2C2HC2HCHCHCH3CdN2C2HC2HCHCHCH3N2C2HC2HCHCHCH3CdN2C2HC2HCHCHCH3N2C2HC2HCHCHCH3Cd
_chemical_formula_sum              "N16 C56 H56 Cd4"
_cell_length_a       14.7731
_cell_length_b       18.9394
_cell_length_c       8.7562
_cell_angle_alpha    90.0
_cell_angle_beta     122.551
_cell_angle_gamma    90.0

_symmetry_space_group_name_H-M    'P 1'
_symmetry_Int_Tables_number       1

loop_
  _symmetry_equiv_pos_as_xyz
  'x,y,z'

loop_
  _atom_site_type_symbol
  _atom_site_label
  _atom_site_symmetry_multiplicity
  _atom_site_fract_x
  _atom_site_fract_y
  _atom_site_fract_z
  _atom_site_occupancy
  N   N1        1.0  0.8285  0.4015  0.9808  1.0000
  N   N2        1.0  0.5458000000000002  0.4442  0.3371  1.0000
  C   C1        1.0  0.6376000000000001  0.4089  0.6411000000000002  1.0000
  C   C2        1.0  0.7475000000000002  0.3579  0.9346000000000002  1.0000
  H   H1        1.0  0.756  0.324  0.018300000000000007  1.0000
  C   C3        1.0  0.5394  0.4089  0.4546  1.0000
  C   C4        1.0  0.6508000000000003  0.3601  0.7684  1.0000
  H   H2        1.0  0.5956000000000002  0.329  0.7432  1.0000
  C   C5        1.0  0.8135  0.4497  0.8570000000000002  1.0000
  H   H3        1.0  0.8685000000000004  0.4815  0.8864000000000002  1.0000
  C   C6        1.0  0.7209000000000002  0.4542  0.6894  1.0000
  H   H4        1.0  0.7146  0.4883  0.6077  1.0000
  C   C7        1.0  0.4447  0.36580000000000007  0.415  1.0000
  H   H5        1.0  0.4585  0.3441  0.5246  1.0000
  H   H6        1.0  0.3826  0.3956  0.3665  1.0000
  H   H7        1.0  0.4319  0.3298  0.3282  1.0000
  N   N3        1.0  0.17150000000000007  0.4015  0.5192  1.0000
  N   N4        1.0  0.4542000000000001  0.4442  0.1629  1.0000
  C   C8        1.0  0.3624000000000002  0.4089  0.8589000000000002  1.0000
  C   C9        1.0  0.25250000000000006  0.3579  0.5654000000000001  1.0000
  H   H8        1.0  0.24400000000000005  0.324  0.4817  1.0000
  C   C10       1.0  0.4606  0.4089  0.04540000000000002  1.0000
  C   C11       1.0  0.34920000000000007  0.3601  0.7316  1.0000
  H   H9        1.0  0.4044000000000001  0.329  0.7568  1.0000
  C   C12       1.0  0.18650000000000005  0.4497  0.6430000000000002  1.0000
  H   H10       1.0  0.13150000000000006  0.4815  0.6136000000000003  1.0000
  C   C13       1.0  0.2791  0.4542  0.8106  1.0000
  H   H11       1.0  0.2854000000000001  0.4883  0.8923000000000002  1.0000
  C   C14       1.0  0.5553000000000002  0.36580000000000007  0.085  1.0000
  H   H12       1.0  0.5415000000000001  0.3441  0.9754000000000002  1.0000
  H   H13       1.0  0.6174000000000002  0.3956  0.1335  1.0000
  H   H14       1.0  0.5681  0.3298  0.1718  1.0000
  Cd  Cd1       1.0  0.0  0.39032000000000006  0.25  1.0000
  N   N5        1.0  0.32850000000000007  0.9015000000000001  0.9808  1.0000
  N   N6        1.0  0.045800000000000014  0.9442  0.3371  1.0000
  C   C15       1.0  0.1376000000000001  0.9089  0.6411000000000002  1.0000
  C   C16       1.0  0.24750000000000014  0.8579  0.9346000000000002  1.0000
  H   H15       1.0  0.256  0.824  0.018300000000000007  1.0000
  C   C17       1.0  0.03939999999999998  0.9089  0.4546  1.0000
  C   C18       1.0  0.1508000000000001  0.8601000000000001  0.7684  1.0000
  H   H16       1.0  0.0956  0.829  0.7432  1.0000
  C   C19       1.0  0.31350000000000017  0.9497  0.8570000000000002  1.0000
  H   H17       1.0  0.3685000000000002  0.9815  0.8864000000000002  1.0000
  C   C20       1.0  0.22090000000000004  0.9542  0.6894  1.0000
  H   H18       1.0  0.2146  0.9883  0.6077  1.0000
  C   C21       1.0  0.9447  0.8658  0.415  1.0000
  H   H19       1.0  0.9585  0.8441  0.5246  1.0000
  H   H20       1.0  0.8826  0.8956  0.3665  1.0000
  H   H21       1.0  0.9319000000000002  0.8298  0.3282  1.0000
  N   N7        1.0  0.6715000000000002  0.9015000000000001  0.5192  1.0000
  N   N8        1.0  0.9542  0.9442  0.1629  1.0000
  C   C22       1.0  0.8624000000000005  0.9089  0.8589000000000002  1.0000
  C   C23       1.0  0.7525000000000001  0.8579  0.5654000000000001  1.0000
  H   H22       1.0  0.7440000000000002  0.824  0.4817  1.0000
  C   C24       1.0  0.9606000000000002  0.9089  0.04540000000000002  1.0000
  C   C25       1.0  0.8492  0.8601000000000001  0.7316  1.0000
  H   H23       1.0  0.9044  0.829  0.7568  1.0000
  C   C26       1.0  0.6865000000000002  0.9497  0.6430000000000002  1.0000
  H   H24       1.0  0.6315  0.9815  0.6136000000000003  1.0000
  C   C27       1.0  0.7791  0.9542  0.8106  1.0000
  H   H25       1.0  0.7854000000000004  0.9883  0.8923000000000002  1.0000
  C   C28       1.0  0.0553  0.8658  0.085  1.0000
  H   H26       1.0  0.04150000000000007  0.8441  0.9754000000000002  1.0000
  H   H27       1.0  0.1174  0.8956  0.1335  1.0000
  H   H28       1.0  0.0681  0.8298  0.1718  1.0000
  Cd  Cd2       1.0  0.5  0.8903200000000001  0.25  1.0000
  N   N9        1.0  0.17150000000000007  0.5985  0.0192  1.0000
  N   N10       1.0  0.45420000000000016  0.5558  0.6629000000000003  1.0000
  C   C29       1.0  0.3624000000000001  0.5911  0.3589  1.0000
  C   C30       1.0  0.2525  0.6421  0.0654  1.0000
  H   H29       1.0  0.2440000000000001  0.676  0.9817000000000002  1.0000
  C   C31       1.0  0.46060000000000006  0.5911  0.5454  1.0000
  C   C32       1.0  0.3492000000000001  0.6399  0.23160000000000006  1.0000
  H   H30       1.0  0.4044000000000001  0.671  0.2568  1.0000
  C   C33       1.0  0.1865  0.5503  0.143  1.0000
  H   H31       1.0  0.1315  0.5185  0.11360000000000003  1.0000
  C   C34       1.0  0.2791  0.5458  0.3106000000000001  1.0000
  H   H32       1.0  0.2854  0.5117  0.3923  1.0000
  C   C35       1.0  0.5553000000000002  0.6342  0.585  1.0000
  H   H33       1.0  0.5415000000000001  0.6559  0.4754  1.0000
  H   H34       1.0  0.6174000000000002  0.6044  0.6335  1.0000
  H   H35       1.0  0.5681  0.6702  0.6718  1.0000
  N   N11       1.0  0.8285  0.5985  0.4808000000000001  1.0000
  N   N12       1.0  0.5458000000000003  0.5558  0.8371000000000002  1.0000
  C   C36       1.0  0.6376  0.5911  0.1411  1.0000
  C   C37       1.0  0.7475000000000002  0.6421  0.4346000000000001  1.0000
  H   H36       1.0  0.756  0.676  0.5183000000000001  1.0000
  C   C38       1.0  0.5394000000000001  0.5911  0.9546  1.0000
  C   C39       1.0  0.6508000000000003  0.6399  0.2684  1.0000
  H   H37       1.0  0.5956000000000002  0.671  0.2432  1.0000
  C   C40       1.0  0.8135  0.5503  0.3570000000000001  1.0000
  H   H38       1.0  0.8685000000000003  0.5185  0.3864  1.0000
  C   C41       1.0  0.7209000000000002  0.5458  0.18940000000000004  1.0000
  H   H39       1.0  0.7146  0.5117  0.1077  1.0000
  C   C42       1.0  0.4447  0.6342  0.915  1.0000
  H   H40       1.0  0.4585  0.6559  0.024600000000000004  1.0000
  H   H41       1.0  0.38259999999999994  0.6044  0.8665000000000002  1.0000
  H   H42       1.0  0.4319  0.6702  0.8282  1.0000
  Cd  Cd3       1.0  6.01213299646063e-17  0.60968  0.7500000000000002  1.0000
  N   N13       1.0  0.6715000000000002  0.0985  0.0192  1.0000
  N   N14       1.0  0.9542000000000002  0.0558  0.6629000000000003  1.0000
  C   C43       1.0  0.8624000000000003  0.0911  0.3589  1.0000
  C   C44       1.0  0.7525000000000001  0.1421  0.0654  1.0000
  H   H43       1.0  0.7440000000000003  0.176  0.9817000000000002  1.0000
  C   C45       1.0  0.9606000000000002  0.0911  0.5454  1.0000
  C   C46       1.0  0.8492  0.1399  0.23160000000000006  1.0000
  H   H44       1.0  0.9044  0.171  0.2568  1.0000
  C   C47       1.0  0.6865000000000002  0.0503  0.143  1.0000
  H   H45       1.0  0.6315  0.018500000000000003  0.11360000000000003  1.0000
  C   C48       1.0  0.7791  0.0458  0.3106000000000001  1.0000
  H   H46       1.0  0.7854000000000002  0.0117  0.3923  1.0000
  C   C49       1.0  0.05529999999999999  0.1342  0.585  1.0000
  H   H47       1.0  0.04150000000000001  0.1559  0.4754  1.0000
  H   H48       1.0  0.1174  0.1044  0.6335  1.0000
  H   H49       1.0  0.06810000000000001  0.1702  0.6718  1.0000
  N   N15       1.0  0.3285000000000001  0.0985  0.4808000000000001  1.0000
  N   N16       1.0  0.0458000000000001  0.0558  0.8371000000000002  1.0000
  C   C50       1.0  0.13760000000000003  0.0911  0.1411  1.0000
  C   C51       1.0  0.24750000000000008  0.1421  0.4346000000000001  1.0000
  H   H50       1.0  0.25600000000000006  0.176  0.5183000000000001  1.0000
  C   C52       1.0  0.03940000000000005  0.0911  0.9546  1.0000
  C   C53       1.0  0.1508  0.1399  0.2684  1.0000
  H   H51       1.0  0.0956  0.171  0.2432  1.0000
  C   C54       1.0  0.3135000000000001  0.0503  0.3570000000000001  1.0000
  H   H52       1.0  0.3685000000000001  0.018500000000000003  0.3864  1.0000
  C   C55       1.0  0.22090000000000004  0.0458  0.18940000000000004  1.0000
  H   H53       1.0  0.2146  0.0117  0.1077  1.0000
  C   C56       1.0  0.9447  0.1342  0.915  1.0000
  H   H54       1.0  0.9585  0.1559  0.024600000000000004  1.0000
  H   H55       1.0  0.8826  0.1044  0.8665000000000002  1.0000
  H   H56       1.0  0.9319000000000002  0.1702  0.8282  1.0000
  Cd  Cd4       1.0  0.5  0.10968  0.7500000000000002  1.0000
