data_image0
_chemical_formula_structural       Zn10O8N36C72H44
_chemical_formula_sum              "Zn10 O8 N36 C72 H44"
_cell_length_a       17.615
_cell_length_b       17.638403
_cell_length_c       19.497000000000003
_cell_angle_alpha    89.989807
_cell_angle_beta     90.0
_cell_angle_gamma    119.871796

_symmetry_space_group_name_H-M    'P 1'
_symmetry_Int_Tables_number       1

loop_
  _symmetry_equiv_pos_as_xyz
  'x,y,z'

loop_
  _atom_site_type_symbol
  _atom_site_label
  _atom_site_symmetry_multiplicity
  _atom_site_fract_x
  _atom_site_fract_y
  _atom_site_fract_z
  _atom_site_occupancy
  Zn  Zn1       1.0  0.8007059999999999  0.0035559999999998926  0.857837  1.0000
  Zn  Zn2       1.0  0.044899999999999864  0.8624709999999998  0.8579690000000001  1.0000
  Zn  Zn3       1.0  0.18593499999999996  0.24720199999999992  0.8580540000000001  1.0000
  Zn  Zn4       1.0  0.30896799999999996  0.492782  0.507798  1.0000
  Zn  Zn5       1.0  0.1673359999999999  0.736561  0.507885  1.0000
  Zn  Zn6       1.0  0.552373  0.877498  0.507585  1.0000
  Zn  Zn7       1.0  0.008904000000000023  0.03700700000000001  0.9207350000000001  1.0000
  Zn  Zn8       1.0  0.34208699999999975  0.703074  0.44500600000000007  1.0000
  Zn  Zn9       1.0  0.00824899999999995  0.03675000000000006  0.10730900000000011  1.0000
  Zn  Zn10      1.0  0.34218899999999985  0.703538  0.25834100000000004  1.0000
  O   O1        1.0  0.700724  0.004021000000000052  0.828596  1.0000
  O   O2        1.0  0.044917999999999986  0.762427  0.8286890000000001  1.0000
  O   O3        1.0  0.2862189999999997  0.3468249999999997  0.828743  1.0000
  O   O4        1.0  0.30924100000000004  0.3928459999999999  0.53703  1.0000
  O   O5        1.0  0.06694499999999978  0.7362079999999999  0.537154  1.0000
  O   O6        1.0  0.6510290000000003  0.978515  0.5370480000000001  1.0000
  O   O7        1.0  0.9871829999999999  0.03330999999999995  0.20074900000000007  1.0000
  O   O8        1.0  0.31972900000000015  0.692172  0.164889  1.0000
  N   N1        1.0  0.93114  0.8633459999999997  0.8326550000000001  1.0000
  N   N2        1.0  0.18427900000000005  0.13234999999999997  0.832372  1.0000
  N   N3        1.0  0.9152589999999999  0.11647999999999992  0.8326780000000001  1.0000
  N   N4        1.0  0.16884999999999994  0.623617  0.533188  1.0000
  N   N5        1.0  0.43772199999999994  0.876567  0.532817  1.0000
  N   N6        1.0  0.42219000000000007  0.607821  0.533453  1.0000
  N   N7        1.0  0.9168669999999998  0.9266299999999997  0.85537  1.0000
  N   N8        1.0  0.121078  0.055126999999999926  0.855451  1.0000
  N   N9        1.0  0.992713  0.13073899999999994  0.8557090000000002  1.0000
  N   N10       1.0  0.23215600000000003  0.609365  0.510344  1.0000
  N   N11       1.0  0.36026800000000003  0.813337  0.5101670000000001  1.0000
  N   N12       1.0  0.436379  0.685061  0.510116  1.0000
  N   N13       1.0  0.842736  0.91832  0.8293160000000002  1.0000
  N   N14       1.0  0.12925199999999995  0.989346  0.829285  1.0000
  N   N15       1.0  0.05837300000000001  0.20470300000000008  0.829661  1.0000
  N   N16       1.0  0.22389499999999996  0.535355  0.53641  1.0000
  N   N17       1.0  0.2945009999999999  0.821674  0.536349  1.0000
  N   N18       1.0  0.5103230000000001  0.750769  0.536196  1.0000
  N   N19       1.0  0.8221429999999996  0.005889000000000033  0.9616260000000001  1.0000
  N   N20       1.0  0.04251399999999963  0.8831049999999998  0.9619390000000001  1.0000
  N   N21       1.0  0.16466500000000006  0.223592  0.9620470000000001  1.0000
  N   N22       1.0  0.31155299999999997  0.516503  0.404074  1.0000
  N   N23       1.0  0.18685599999999983  0.7347109999999998  0.404124  1.0000
  N   N24       1.0  0.5291859999999997  0.8570329999999998  0.4032600000000001  1.0000
  N   N25       1.0  0.8992609999999999  0.0191619999999999  0.984957  1.0000
  N   N26       1.0  0.028364999999999647  0.9461539999999998  0.985652  1.0000
  N   N27       1.0  0.10153599999999982  0.14648999999999998  0.985599  1.0000
  N   N28       1.0  0.32507999999999976  0.593661  0.380794  1.0000
  N   N29       1.0  0.2504759999999999  0.721072  0.3807450000000001  1.0000
  N   N30       1.0  0.4522209999999997  0.794211  0.379323  1.0000
  N   N31       1.0  0.899691  0.015362000000000098  0.05328200000000006  1.0000
  N   N32       1.0  0.03169899999999988  0.949602  0.05419100000000011  1.0000
  N   N33       1.0  0.09688099999999977  0.14660099999999976  0.054054999999999964  1.0000
  N   N34       1.0  0.3203959999999997  0.593943  0.312444  1.0000
  N   N35       1.0  0.2545419999999998  0.724689  0.312394  1.0000
  N   N36       1.0  0.452525  0.790908  0.310714  1.0000
  C   C1        1.0  0.80759  0.847032  0.787  1.0000
  C   C2        1.0  0.2002060000000001  0.025061999999999918  0.7865230000000001  1.0000
  C   C3        1.0  0.022164999999999987  0.23964399999999997  0.7870140000000001  1.0000
  C   C4        1.0  0.1526400000000001  0.500361  0.5788730000000001  1.0000
  C   C5        1.0  0.33059  0.89292  0.578695  1.0000
  C   C6        1.0  0.5453529999999996  0.714971  0.5791760000000001  1.0000
  C   C7        1.0  0.863927  0.811427  0.7894950000000001  1.0000
  C   C8        1.0  0.23584699999999992  0.11677800000000005  0.78882  1.0000
  C   C9        1.0  0.930386  0.1834389999999999  0.789301  1.0000
  C   C10       1.0  0.11698600000000002  0.55662  0.576468  1.0000
  C   C11       1.0  0.4224239999999997  0.928482  0.576075  1.0000
  C   C12       1.0  0.4892049999999997  0.6232939999999998  0.5770780000000001  1.0000
  C   C13       1.0  0.8460509999999999  0.736417  0.7514590000000002  1.0000
  C   C14       1.0  0.310505  0.17339700000000002  0.7502100000000003  1.0000
  C   C15       1.0  0.873157  0.20099200000000006  0.750864  1.0000
  C   C16       1.0  0.04209599999999992  0.539046  0.614695  1.0000
  C   C17       1.0  0.47946599999999967  0.00343899999999997  0.614117  1.0000
  C   C18       1.0  0.5071079999999996  0.566624  0.615903  1.0000
  C   C19       1.0  0.7713789999999999  0.70048  0.7110860000000001  1.0000
  C   C20       1.0  0.34600300000000006  0.13440800000000008  0.70953  1.0000
  C   C21       1.0  0.911683  0.2752570000000001  0.710161  1.0000
  C   C22       1.0  0.006297999999999939  0.464662  0.655273  1.0000
  C   C23       1.0  0.44073999999999985  0.03935399999999988  0.654627  1.0000
  C   C24       1.0  0.5815039999999997  0.605529  0.656583  1.0000
  C   C25       1.0  0.714707  0.736883  0.7069610000000001  1.0000
  C   C26       1.0  0.3095490000000001  0.0415430000000001  0.705686  1.0000
  C   C27       1.0  0.004596999999999729  0.33174499999999996  0.7062430000000001  1.0000
  C   C28       1.0  0.042769000000000064  0.408101  0.659315  1.0000
  C   C29       1.0  0.3477730000000001  0.0029799999999999822  0.658888  1.0000
  C   C30       1.0  0.6379619999999999  0.698359  0.660231  1.0000
  C   C31       1.0  0.732326  0.810359  0.745721  1.0000
  C   C32       1.0  0.23644700000000007  0.986176  0.7450100000000001  1.0000
  C   C33       1.0  0.06054800000000001  0.31453799999999993  0.7454680000000002  1.0000
  C   C34       1.0  0.11605699999999984  0.425355  0.6203060000000001  1.0000
  C   C35       1.0  0.2920079999999997  0.9295729999999998  0.620107  1.0000
  C   C36       1.0  0.620331  0.753767  0.620742  1.0000
  C   C37       1.0  0.7697529999999997  0.9927409999999998  0.017277999999999905  1.0000
  C   C38       1.0  0.05584300000000006  0.843532  0.017265000000000086  1.0000
  C   C39       1.0  0.20302699999999985  0.2766059999999999  0.017457999999999974  1.0000
  C   C40       1.0  0.2973059999999998  0.463935  0.348421  1.0000
  C   C41       1.0  0.14761799999999997  0.7479859999999998  0.348517  1.0000
  C   C42       1.0  0.5823629999999997  0.896658  0.348119  1.0000
  C   C43       1.0  0.8195379999999998  0.9986689999999998  0.07602700000000008  1.0000
  C   C44       1.0  0.0488120000000001  0.886165  0.07633800000000002  1.0000
  C   C45       1.0  0.1592690000000001  0.22730199999999967  0.07635600000000031  1.0000
  C   C46       1.0  0.30268800000000007  0.513555  0.289737  1.0000
  C   C47       1.0  0.19117999999999988  0.74165  0.289733  1.0000
  C   C48       1.0  0.5331930000000003  0.85417  0.288865  1.0000
  C   C49       1.0  0.7853549999999998  0.9854979999999998  0.14274600000000007  1.0000
  C   C50       1.0  0.0613329999999999  0.86346  0.1426210000000001  1.0000
  C   C51       1.0  0.17999000000000007  0.2628269999999999  0.1426210000000001  1.0000
  C   C52       1.0  0.2883500000000001  0.478878  0.223174  1.0000
  C   C53       1.0  0.16989399999999968  0.7546799999999998  0.223073  1.0000
  C   C54       1.0  0.5690959999999998  0.876907  0.22280500000000003  1.0000
  C   C55       1.0  0.6984959999999997  0.9655739999999998  0.14905999999999997  1.0000
  C   C56       1.0  0.08216599999999971  0.797123  0.14844600000000033  1.0000
  C   C57       1.0  0.2466489999999999  0.3495760000000001  0.14860199999999993  1.0000
  C   C58       1.0  0.26855099999999993  0.3921919999999999  0.216848  1.0000
  C   C59       1.0  0.10325999999999995  0.775114  0.216779  1.0000
  C   C60       1.0  0.6560989999999998  0.94335  0.21729000000000004  1.0000
  C   C61       1.0  0.6492929999999999  0.962283  0.08935599999999999  1.0000
  C   C62       1.0  0.08757299999999989  0.753302  0.08824100000000003  1.0000
  C   C63       1.0  0.291935  0.398262  0.08867599999999998  1.0000
  C   C64       1.0  0.26556500000000005  0.3431869999999999  0.276516  1.0000
  C   C65       1.0  0.057830999999999945  0.779101  0.27656200000000003  1.0000
  C   C66       1.0  0.704714  0.987011  0.27768  1.0000
  C   C67       1.0  0.682924  0.97553  0.023479999999999945  1.0000
  C   C68       1.0  0.074492  0.774821  0.022698000000000107  1.0000
  C   C69       1.0  0.27164699999999997  0.363715  0.02310499999999993  1.0000
  C   C70       1.0  0.2795080000000001  0.377043  0.342309  1.0000
  C   C71       1.0  0.07831499999999968  0.765745  0.342391  1.0000
  C   C72       1.0  0.6696229999999999  0.965289  0.34304300000000004  1.0000
  H   H1        1.0  0.8901089999999997  0.709815  0.753817  1.0000
  H   H2        1.0  0.3372359999999998  0.24390500000000004  0.752391  1.0000
  H   H3        1.0  0.80264  0.15697399999999992  0.753232  1.0000
  H   H4        1.0  0.015552999999999926  0.583122  0.612324  1.0000
  H   H5        1.0  0.5500329999999999  0.029949000000000003  0.611611  1.0000
  H   H6        1.0  0.463306  0.496142  0.613842  1.0000
  H   H7        1.0  0.7559319999999998  0.643637  0.6796  1.0000
  H   H8        1.0  0.40254300000000004  0.17543200000000003  0.6776140000000002  1.0000
  H   H9        1.0  0.8703219999999998  0.2904880000000001  0.6782560000000001  1.0000
  H   H10       1.0  0.9496009999999999  0.449385  0.687  1.0000
  H   H11       1.0  0.4820249999999997  0.09613800000000006  0.686152  1.0000
  H   H12       1.0  0.5969059999999999  0.564463  0.688642  1.0000
  H   H13       1.0  0.689392  0.838187  0.744374  1.0000
  H   H14       1.0  0.20857400000000006  0.915564  0.743962  1.0000
  H   H15       1.0  0.13117800000000002  0.357483  0.7441980000000001  1.0000
  H   H16       1.0  0.14379000000000008  0.382358  0.621652  1.0000
  H   H17       1.0  0.2213259999999998  0.9017659999999997  0.6215400000000001  1.0000
  H   H18       1.0  0.6630959999999996  0.82434  0.621725  1.0000
  H   H19       1.0  0.82538  0.98799  0.18626600000000004  1.0000
  H   H20       1.0  0.057542999999999817  0.8987069999999998  0.18706  1.0000
  H   H21       1.0  0.14231399999999983  0.2246680000000001  0.18662700000000013  1.0000
  H   H22       1.0  0.2894159999999999  0.518094  0.179623  1.0000
  H   H23       1.0  0.206908  0.7514289999999998  0.179502  1.0000
  H   H24       1.0  0.531091  0.841417  0.178092  1.0000
  H   H25       1.0  0.5828169999999994  0.949884  0.09670200000000007  1.0000
  H   H26       1.0  0.1019159999999999  0.70043  0.0948690000000001  1.0000
  H   H27       1.0  0.34503100000000003  0.4650789999999999  0.09561599999999992  1.0000
  H   H28       1.0  0.25263099999999983  0.276643  0.269161  1.0000
  H   H29       1.0  0.004183000000000036  0.792239  0.269379  1.0000
  H   H30       1.0  0.7718789999999999  0.03979899999999992  0.271318  1.0000
  H   H31       1.0  0.645558  0.973626  0.978419  1.0000
  H   H32       1.0  0.07773399999999973  0.7408159999999999  0.9771740000000001  1.0000
  H   H33       1.0  0.3065880000000001  0.400691  0.9777880000000001  1.0000
  H   H34       1.0  0.27773199999999987  0.33978200000000003  0.387386  1.0000
  H   H35       1.0  0.04307699999999981  0.767976  0.387499  1.0000
  H   H36       1.0  0.706441  0.99914  0.3887170000000001  1.0000
  H   H37       1.0  0.10192399999999993  0.772087  0.815196  1.0000
  H   H38       1.0  0.2763679999999997  0.393865  0.814812  1.0000
  H   H39       1.0  0.6547159999999995  0.9478249999999998  0.8126510000000002  1.0000
  H   H40       1.0  0.0767849999999999  0.792791  0.551866  1.0000
  H   H41       1.0  0.699197  0.970009  0.55027  1.0000
  H   H42       1.0  0.2531319999999999  0.347326  0.553621  1.0000
  H   H43       1.0  0.035385  0.04081000000000001  0.22928299999999993  1.0000
  H   H44       1.0  0.37177799999999994  0.7184679999999999  0.136587  1.0000
