data_image0
_chemical_formula_structural       Ni6Zn4O8N36C72H44
_chemical_formula_sum              "Ni6 Zn4 O8 N36 C72 H44"
_cell_length_a       17.836
_cell_length_b       17.927734
_cell_length_c       18.973013
_cell_angle_alpha    89.997726
_cell_angle_beta     90.057381
_cell_angle_gamma    119.76826499999999

_space_group_name_H-M_alt    "P 1"
_space_group_IT_number       1

loop_
  _space_group_symop_operation_xyz
  'x, y, z'

loop_
  _atom_site_type_symbol
  _atom_site_label
  _atom_site_symmetry_multiplicity
  _atom_site_fract_x
  _atom_site_fract_y
  _atom_site_fract_z
  _atom_site_occupancy
  Ni  Ni1       1.0  0.7674110000000001  0.976033  0.86043  1.0000
  Ni  Ni2       1.0  0.002512999999999981  0.83431  0.860551  1.0000
  Ni  Ni3       1.0  0.14317500000000005  0.20900000000000007  0.860765  1.0000
  Ni  Ni4       1.0  0.27376500000000004  0.469318  0.51647  1.0000
  Ni  Ni5       1.0  0.13009699999999988  0.701845  0.516806  1.0000
  Ni  Ni6       1.0  0.5061  0.843115  0.515526  1.0000
  Zn  Zn1       1.0  0.9699490000000001  0.005119000000000096  0.9257310000000001  1.0000
  Zn  Zn2       1.0  0.3022180000000001  0.670958  0.450963  1.0000
  Zn  Zn3       1.0  0.9719830000000002  0.007266999999999912  0.11433000000000004  1.0000
  Zn  Zn4       1.0  0.30205499999999996  0.671075  0.26191  1.0000
  O   O1        1.0  0.652701  0.928792  0.841451  1.0000
  O   O2        1.0  0.050143999999999994  0.767254  0.841311  1.0000
  O   O3        1.0  0.209811  0.322854  0.84129  1.0000
  O   O4        1.0  0.22722299999999993  0.355404  0.535709  1.0000
  O   O5        1.0  0.06505600000000003  0.752008  0.535768  1.0000
  O   O6        1.0  0.6206480000000001  0.908114  0.535665  1.0000
  O   O7        1.0  0.953424  0.996043  0.21114699999999997  1.0000
  O   O8        1.0  0.28332099999999993  0.659296  0.164953  1.0000
  N   N1        1.0  0.894723  0.838244  0.836069  1.0000
  N   N2        1.0  0.1388419999999999  0.09767799999999993  0.835835  1.0000
  N   N3        1.0  0.8786930000000001  0.082152  0.835952  1.0000
  N   N4        1.0  0.13448299999999988  0.594954  0.54143  1.0000
  N   N5        1.0  0.394976  0.839424  0.539731  1.0000
  N   N6        1.0  0.3797269999999999  0.58026  0.540812  1.0000
  N   N7        1.0  0.881535  0.901395  0.858961  1.0000
  N   N8        1.0  0.07584900000000006  0.021897999999999973  0.8593559999999999  1.0000
  N   N9        1.0  0.955085  0.09542000000000006  0.85959  1.0000
  N   N10       1.0  0.19799600000000003  0.582092  0.518168  1.0000
  N   N11       1.0  0.3186819999999999  0.776171  0.51698  1.0000
  N   N12       1.0  0.3926970000000001  0.656041  0.517058  1.0000
  N   N13       1.0  0.80857  0.894284  0.833267  1.0000
  N   N14       1.0  0.08282600000000005  0.956404  0.833463  1.0000
  N   N15       1.0  0.020475999999999942  0.16769199999999995  0.83369  1.0000
  N   N16       1.0  0.19123100000000015  0.509627  0.543696  1.0000
  N   N17       1.0  0.25298000000000004  0.7830650000000002  0.543183  1.0000
  N   N18       1.0  0.4650109999999999  0.721379  0.543193  1.0000
  N   N19       1.0  0.789499  0.980141  0.9640999999999998  1.0000
  N   N20       1.0  0.997862  0.851679  0.9640109999999998  1.0000
  N   N21       1.0  0.12545300000000026  0.18644700000000025  0.964388  1.0000
  N   N22       1.0  0.27765799999999996  0.49116300000000007  0.412654  1.0000
  N   N23       1.0  0.14646599999999996  0.696642  0.413197  1.0000
  N   N24       1.0  0.48342000000000007  0.8247640000000003  0.411764  1.0000
  N   N25       1.0  0.864785  0.99315  0.989809  1.0000
  N   N26       1.0  0.9846850000000001  0.913455  0.989951  1.0000
  N   N27       1.0  0.06455999999999995  0.11155300000000001  0.990456  1.0000
  N   N28       1.0  0.2900499999999999  0.565734  0.386849  1.0000
  N   N29       1.0  0.2085619999999999  0.683423  0.38742  1.0000
  N   N30       1.0  0.40848400000000007  0.763691  0.385427  1.0000
  N   N31       1.0  0.863128  0.987077  0.06000899999999998  1.0000
  N   N32       1.0  0.989616  0.916609  0.06030399999999991  1.0000
  N   N33       1.0  0.061056999999999924  0.11399899999999996  0.06083499999999997  1.0000
  N   N34       1.0  0.2837240000000001  0.563714  0.316619  1.0000
  N   N35       1.0  0.2123349999999999  0.688971  0.317162  1.0000
  N   N36       1.0  0.41101699999999997  0.760404  0.314978  1.0000
  C   C1        1.0  0.771792  0.823065  0.790857  1.0000
  C   C2        1.0  0.15352999999999994  0.990336  0.790232  1.0000
  C   C3        1.0  0.9857690000000002  0.2038110000000002  0.7904059999999999  1.0000
  C   C4        1.0  0.12000199999999994  0.472908  0.586405  1.0000
  C   C5        1.0  0.2874380000000001  0.854154  0.585756  1.0000
  C   C6        1.0  0.5014579999999997  0.68726  0.586756  1.0000
  C   C7        1.0  0.826669  0.786984  0.792891  1.0000
  C   C8        1.0  0.18959600000000013  0.08072600000000008  0.791911  1.0000
  C   C9        1.0  0.895023  0.149324  0.792098  1.0000
  C   C10       1.0  0.08339199999999991  0.527211  0.584675  1.0000
  C   C11       1.0  0.3783110000000003  0.890383  0.583358  1.0000
  C   C12       1.0  0.4471179999999996  0.596921  0.585005  1.0000
  C   C13       1.0  0.8061770000000001  0.7119070000000001  0.754657  1.0000
  C   C14       1.0  0.26426499999999997  0.134614  0.752766  1.0000
  C   C15       1.0  0.8402129999999999  0.16938000000000009  0.75302  1.0000
  C   C16       1.0  0.008143000000000003  0.506567  0.623291  1.0000
  C   C17       1.0  0.4330380000000003  0.965311  0.621668  1.0000
  C   C18       1.0  0.46742400000000006  0.542704  0.624362  1.0000
  C   C19       1.0  0.730634  0.675888  0.715414  1.0000
  C   C20       1.0  0.2996540000000001  0.09492600000000007  0.712964  1.0000
  C   C21       1.0  0.879355  0.244151  0.713372  1.0000
  C   C22       1.0  0.972567  0.431553  0.662637  1.0000
  C   C23       1.0  0.39366199999999996  0.0010300000000000864  0.66145  1.0000
  C   C24       1.0  0.5423979999999999  0.582048  0.664311  1.0000
  C   C25       1.0  0.675397  0.712545  0.712255  1.0000
  C   C26       1.0  0.26296300000000006  0.003543000000000074  0.710266  1.0000
  C   C27       1.0  0.9711059999999999  0.2991140000000001  0.710682  1.0000
  C   C28       1.0  0.009859000000000092  0.3769530000000001  0.66554  1.0000
  C   C29       1.0  0.30181699999999995  0.964303  0.664925  1.0000
  C   C30       1.0  0.597213  0.673393  0.667027  1.0000
  C   C31       1.0  0.695875  0.78672  0.75051  1.0000
  C   C32       1.0  0.18929299999999996  0.950557  0.7494979999999999  1.0000
  C   C33       1.0  0.024993999999999985  0.2789489999999999  0.749689  1.0000
  C   C34       1.0  0.08417100000000001  0.397573  0.6269  1.0000
  C   C35       1.0  0.248003  0.8902570000000001  0.626568  1.0000
  C   C36       1.0  0.5767439999999999  0.726663  0.627799  1.0000
  C   C37       1.0  0.735524  0.964634  0.020318000000000058  1.0000
  C   C38       1.0  0.012404000000000087  0.812264  0.02005199999999996  1.0000
  C   C39       1.0  0.16388500000000006  0.24096699999999993  0.020216000000000012  1.0000
  C   C40       1.0  0.26235600000000003  0.437318  0.35650599999999993  1.0000
  C   C41       1.0  0.10749300000000006  0.711848  0.357027  1.0000
  C   C42       1.0  0.538157  0.863642  0.356137  1.0000
  C   C43       1.0  0.7828480000000001  0.969103  0.0816730000000001  1.0000
  C   C44       1.0  0.006776999999999998  0.853774  0.08165  1.0000
  C   C45       1.0  0.12244999999999995  0.19438  0.0819160000000001  1.0000
  C   C46       1.0  0.26626999999999995  0.483958  0.295082  1.0000
  C   C47       1.0  0.1497930000000001  0.706807  0.295623  1.0000
  C   C48       1.0  0.49160000000000004  0.8223980000000002  0.294243  1.0000
  C   C49       1.0  0.7464439999999999  0.95365  0.149343  1.0000
  C   C50       1.0  0.020491000000000235  0.830863  0.14918900000000002  1.0000
  C   C51       1.0  0.14408599999999996  0.23185300000000011  0.14914000000000005  1.0000
  C   C52       1.0  0.2508729999999999  0.447452  0.22748500000000002  1.0000
  C   C53       1.0  0.12818500000000002  0.721627  0.22794500000000004  1.0000
  C   C54       1.0  0.529514  0.845099  0.22721400000000003  1.0000
  C   C55       1.0  0.660259  0.933149  0.15415200000000007  1.0000
  C   C56       1.0  0.041471000000000036  0.765695  0.15373100000000006  1.0000
  C   C57       1.0  0.20895  0.31770499999999996  0.15349999999999997  1.0000
  C   C58       1.0  0.23126600000000022  0.361991  0.222712  1.0000
  C   C59       1.0  0.06297100000000012  0.742866  0.22305999999999998  1.0000
  C   C60       1.0  0.6156609999999998  0.910101  0.22326100000000001  1.0000
  C   C61       1.0  0.6135960000000003  0.930989  0.09187900000000004  1.0000
  C   C62       1.0  0.045816000000000155  0.7233120000000002  0.09105800000000008  1.0000
  C   C63       1.0  0.2515449999999999  0.363725  0.09074300000000002  1.0000
  C   C64       1.0  0.22937300000000005  0.3159179999999999  0.285098  1.0000
  C   C65       1.0  0.019377999999999902  0.746237  0.285417  1.0000
  C   C66       1.0  0.661627  0.952125  0.286269  1.0000
  C   C67       1.0  0.649284  0.946317  0.025031999999999943  1.0000
  C   C68       1.0  0.03130399999999997  0.744912  0.024350000000000094  1.0000
  C   C69       1.0  0.23035600000000003  0.32722000000000007  0.024194999999999967  1.0000
  C   C70       1.0  0.24446900000000002  0.351673  0.351906  1.0000
  C   C71       1.0  0.039964000000000124  0.730872  0.352256  1.0000
  C   C72       1.0  0.6246219999999999  0.930376  0.352605  1.0000
  H   H1        1.0  0.8484839999999999  0.684337  0.755482  1.0000
  H   H2        1.0  0.2920020000000001  0.20409300000000008  0.753309  1.0000
  H   H3        1.0  0.7704690000000001  0.12734800000000002  0.753585  1.0000
  H   H4        1.0  0.980053  0.548342  0.622713  1.0000
  H   H5        1.0  0.5028720000000002  0.9929160000000002  0.620555  1.0000
  H   H6        1.0  0.42541599999999996  0.47327  0.623792  1.0000
  H   H7        1.0  0.713369  0.618729  0.684099  1.0000
  H   H8        1.0  0.35640700000000014  0.1343110000000003  0.680915  1.0000
  H   H9        1.0  0.8392509999999999  0.2611000000000001  0.681505  1.0000
  H   H10       1.0  0.9153050000000001  0.41425300000000004  0.694217  1.0000
  H   H11       1.0  0.43368000000000007  0.05804100000000001  0.69288  1.0000
  H   H12       1.0  0.5595779999999997  0.542435  0.696391  1.0000
  H   H13       1.0  0.6549120000000002  0.815811  0.750125  1.0000
  H   H14       1.0  0.16017299999999987  0.880915  0.749744  1.0000
  H   H15       1.0  0.094932  0.3196000000000001  0.749684  1.0000
  H   H16       1.0  0.113794  0.35715400000000014  0.627185  1.0000
  H   H17       1.0  0.17798800000000006  0.86112  0.627107  1.0000
  H   H18       1.0  0.617289  0.796267  0.627927  1.0000
  H   H19       1.0  0.7843790000000003  0.955068  0.19488499999999997  1.0000
  H   H20       1.0  0.017157000000000124  0.865181  0.19531900000000002  1.0000
  H   H21       1.0  0.10845900000000008  0.1958549999999999  0.19537800000000005  1.0000
  H   H22       1.0  0.25120600000000004  0.484577  0.181914  1.0000
  H   H23       1.0  0.16396700000000006  0.7190290000000003  0.182412  1.0000
  H   H24       1.0  0.493587  0.810651  0.18052  1.0000
  H   H25       1.0  0.5474939999999997  0.917862  0.0980049999999999  1.0000
  H   H26       1.0  0.060217  0.671293  0.09669499999999998  1.0000
  H   H27       1.0  0.303134  0.43004400000000004  0.09616599999999997  1.0000
  H   H28       1.0  0.21639800000000012  0.2501880000000001  0.279166  1.0000
  H   H29       1.0  0.9671970000000001  0.76066  0.2794  1.0000
  H   H30       1.0  0.728207  0.0037519999999999776  0.281265  1.0000
  H   H31       1.0  0.6136590000000002  0.9449470000000002  0.9780009999999999  1.0000
  H   H32       1.0  0.03408499999999989  0.712185  0.9769620000000001  1.0000
  H   H33       1.0  0.26281200000000005  0.36244  0.976674  1.0000
  H   H34       1.0  0.2430699999999999  0.31642100000000006  0.399039  1.0000
  H   H35       1.0  0.00622999999999997  0.733087  0.39926  1.0000
  H   H36       1.0  0.659651  0.962589  0.400331  1.0000
  H   H37       1.0  0.10785599999999994  0.780901  0.855213  1.0000
  H   H38       1.0  0.194326  0.366289  0.852088  1.0000
  H   H39       1.0  0.609985  0.870973  0.855141  1.0000
  H   H40       1.0  0.08139099999999999  0.809879  0.521083  1.0000
  H   H41       1.0  0.663  0.890965  0.5248  1.0000
  H   H42       1.0  0.1686510000000001  0.3126690000000001  0.52325  1.0000
  H   H43       1.0  0.005595999999999934  0.02763699999999991  0.2386999999999999  1.0000
  H   H44       1.0  0.334436  0.695682  0.137633  1.0000
