data_image0
_chemical_formula_structural       OCHFCoCO2CoO3HC4OF4HCoO3CoCO2C4HCHCoCOCoO2FC2O2C3HC2FC6FNFCHNF3OCFCNCNCNCNCNCNCNCNC2NCNCCo3O2C3O7CO3Co3O2C4O7CO3CFC7H2CF6C4HF3CHCF6C7H2CF6C3HCF3C7H2CF6C7HCF5C7H2CF6C7H2CF6C7HCF5C7H2CF6
_chemical_formula_sum              "O42 C124 H24 F72 Co12 N12"
_cell_length_a       20.01646
_cell_length_b       21.31933
_cell_length_c       22.63402
_cell_angle_alpha    61.10607000000001
_cell_angle_beta     118.58683
_cell_angle_gamma    133.21953000000002

_space_group_name_H-M_alt    "P 1"
_space_group_IT_number       1

loop_
  _space_group_symop_operation_xyz
  'x, y, z'

loop_
  _atom_site_type_symbol
  _atom_site_label
  _atom_site_symmetry_multiplicity
  _atom_site_fract_x
  _atom_site_fract_y
  _atom_site_fract_z
  _atom_site_occupancy
  O   O1        1.0  0.00989  0.008950000000000007  0.12322999999999999  1.0000
  C   C1        1.0  0.008339999999999972  0.008009999999999979  0.35055  1.0000
  H   H1        1.0  0.03243999999999983  0.7185699999999998  0.57199  1.0000
  F   F1        1.0  0.0072200000000000025  0.60189  0.34863999999999995  1.0000
  Co  Co1       1.0  0.04908999999999999  0.05178999999999998  0.21726  1.0000
  C   C2        1.0  0.05595999999999997  0.20831999999999998  0.20644  1.0000
  O   O2        1.0  0.027129999999999672  0.9837899999999996  0.31919999999999993  1.0000
  O   O3        1.0  0.06223999999999986  0.9523499999999998  0.09134999999999997  1.0000
  Co  Co2       1.0  0.06322  0.04031000000000001  0.73231  1.0000
  O   O4        1.0  0.03477000000000012  0.14327000000000004  0.7744099999999999  1.0000
  O   O5        1.0  0.03757999999999991  0.9738199999999999  0.8340199999999999  1.0000
  O   O6        1.0  0.07737999999999998  0.95565  0.5957  1.0000
  H   H2        1.0  0.04150999999999991  0.65859  0.7490899999999998  1.0000
  C   C3        1.0  0.04581000000000003  0.3016499999999999  0.23895  1.0000
  C   C4        1.0  0.01052999999999999  0.63927  0.2795  1.0000
  C   C5        1.0  0.013939999999999718  0.9757899999999996  0.92525  1.0000
  C   C6        1.0  0.028329999999999987  0.98699  0.42773  1.0000
  O   O7        1.0  0.027410000000000007  0.00957000000000001  0.63271  1.0000
  F   F2        1.0  0.058679999999999816  0.5124899999999998  0.73922  1.0000
  F   F3        1.0  0.07928999999999964  0.6482699999999998  0.56222  1.0000
  F   F4        1.0  0.06948000000000001  0.62288  0.10133  1.0000
  F   F5        1.0  0.019249999999999875  0.3216099999999999  0.60729  1.0000
  H   H3        1.0  0.017379999999999996  0.70602  0.08169  1.0000
  Co  Co3       1.0  0.1077199999999999  0.9122099999999997  0.05837  1.0000
  O   O8        1.0  0.10558000000000001  0.18267  0.21312  1.0000
  O   O9        1.0  0.10141999999999983  0.8224099999999998  0.15245  1.0000
  O   O10       1.0  0.09802000000000005  0.9955099999999999  0.96279  1.0000
  Co  Co4       1.0  0.1218900000000001  0.9185500000000001  0.5582499999999999  1.0000
  C   C7        1.0  0.10664000000000004  0.20095000000000002  0.74553  1.0000
  O   O11       1.0  0.11957999999999978  0.8249399999999998  0.6494399999999999  1.0000
  O   O12       1.0  0.11162000000000004  0.004229999999999996  0.4644499999999999  1.0000
  C   C8        1.0  0.11572000000000005  0.6860700000000001  0.7689699999999999  1.0000
  C   C9        1.0  0.07145000000000004  0.53383  0.79432  1.0000
  C   C10       1.0  0.09460000000000002  0.38362  0.25204  1.0000
  C   C11       1.0  0.09902999999999992  0.2776599999999999  0.24116  1.0000
  H   H4        1.0  0.057549999999999976  0.41094999999999987  0.23782  1.0000
  C   C12       1.0  0.11014999999999979  0.6908299999999998  0.27431  1.0000
  H   H5        1.0  0.09226999999999982  0.5757699999999998  0.28014  1.0000
  Co  Co5       1.0  0.12701  0.99404  0.16257999999999997  1.0000
  C   C13       1.0  0.14674999999999977  0.8419599999999998  0.21303999999999998  1.0000
  O   O13       1.0  0.1408499999999998  0.8900599999999997  0.22998  1.0000
  Co  Co6       1.0  0.1383699999999997  0.9867799999999995  0.6713599999999998  1.0000
  O   O14       1.0  0.13507999999999992  0.17399000000000003  0.7262399999999999  1.0000
  O   O15       1.0  0.13703999999999997  0.87385  0.7303999999999999  1.0000
  F   F6        1.0  0.09902999999999991  0.4875599999999998  0.85636  1.0000
  C   C14       1.0  0.14494000000000004  0.6330399999999998  0.788  1.0000
  C   C15       1.0  0.15589999999999987  0.8372099999999998  0.7122299999999998  1.0000
  O   O16       1.0  0.15937  0.05358999999999999  0.23092  1.0000
  O   O17       1.0  0.1669900000000001  0.03254000000000003  0.74778  1.0000
  C   C16       1.0  0.16527  0.41670999999999997  0.72241  1.0000
  C   C17       1.0  0.15058  0.35454  0.70211  1.0000
  C   C18       1.0  0.11270999999999998  0.35443  0.6260899999999999  1.0000
  H   H6        1.0  0.14840999999999974  0.4624799999999998  0.6834999999999999  1.0000
  C   C19       1.0  0.14250999999999986  0.6441299999999998  0.28397  1.0000
  C   C20       1.0  0.16904999999999995  0.29243  0.75307  1.0000
  F   F7        1.0  0.16233999999999996  0.4403799999999998  0.58668  1.0000
  C   C21       1.0  0.18194999999999995  0.77724  0.76682  1.0000
  C   C22       1.0  0.17481999999999998  0.7838099999999998  0.26862  1.0000
  C   C23       1.0  0.21265  0.42825  0.79013  1.0000
  C   C24       1.0  0.21803999999999998  0.3049799999999999  0.8206  1.0000
  C   C25       1.0  0.1905199999999999  0.42979  0.28388  1.0000
  C   C26       1.0  0.19415  0.32137999999999994  0.27665  1.0000
  F   F8        1.0  0.12054  0.30411  0.61135  1.0000
  N   N1        1.0  0.2185999999999998  0.5581699999999998  0.29384999999999994  1.0000
  F   F9        1.0  0.24672000000000005  0.40030000000000004  0.93452  1.0000
  C   C27       1.0  0.2340199999999998  0.3680799999999998  0.84079  1.0000
  H   H7        1.0  0.23499999999999982  0.25935  0.85931  1.0000
  N   N2        1.0  0.23058999999999988  0.5489899999999996  0.80178  1.0000
  F   F10       1.0  0.26122999999999996  0.29422999999999994  0.9600299999999999  1.0000
  F   F11       1.0  0.9853  0.50644  0.79362  1.0000
  F   F12       1.0  0.9806299999999998  0.6923699999999998  0.25142  1.0000
  O   O18       1.0  0.9662300000000001  0.16639  0.17609  1.0000
  C   C28       1.0  0.9396800000000001  0.23768999999999998  0.23144  1.0000
  F   F13       1.0  0.9486700000000001  0.5721  0.24516  1.0000
  C   C29       1.0  0.7217800000000001  0.3130499999999999  0.009199999999999998  1.0000
  N   N3        1.0  0.7846500000000001  0.3833699999999999  0.04006  1.0000
  C   C30       1.0  0.75918  0.4344999999999999  0.029839999999999995  1.0000
  N   N4        1.0  0.67214  0.41234000000000004  0.9912599999999999  1.0000
  C   C31       1.0  0.6046799999999999  0.32985999999999993  0.9808499999999999  1.0000
  N   N5        1.0  0.63143  0.28714999999999996  0.9794399999999999  1.0000
  C   C32       1.0  0.7328700000000001  0.31946999999999987  0.50926  1.0000
  N   N6        1.0  0.6405200000000002  0.28754  0.48746  1.0000
  C   C33       1.0  0.61463  0.33159  0.48807  1.0000
  N   N7        1.0  0.6819499999999997  0.4155999999999998  0.49545999999999996  1.0000
  C   C34       1.0  0.7716600000000001  0.44221  0.5282099999999998  1.0000
  N   N8        1.0  0.7979500000000002  0.39346  0.53544  1.0000
  C   C35       1.0  0.2729999999999999  0.6475499999999997  0.28792  1.0000
  N   N9        1.0  0.3553299999999999  0.7026699999999998  0.26755999999999996  1.0000
  C   C36       1.0  0.38222999999999996  0.66935  0.25242999999999993  1.0000
  N   N10       1.0  0.3253  0.58253  0.254  1.0000
  C   C37       1.0  0.24648000000000003  0.52589  0.27783  1.0000
  C   C38       1.0  0.28099999999999986  0.6375799999999997  0.79548  1.0000
  N   N11       1.0  0.3684999999999996  0.6944299999999998  0.7826499999999998  1.0000
  C   C39       1.0  0.40683999999999976  0.6626499999999997  0.7801199999999999  1.0000
  N   N12       1.0  0.35941999999999996  0.57471  0.79175  1.0000
  C   C40       1.0  0.2702299999999999  0.518  0.7992399999999998  1.0000
  Co  Co7       1.0  0.86669  0.9633799999999999  0.11687999999999998  1.0000
  Co  Co8       1.0  0.95043  0.9194799999999997  0.05656  1.0000
  Co  Co9       1.0  0.87699  0.03582999999999999  0.22135999999999997  1.0000
  O   O19       1.0  0.9363  0.017839999999999995  0.18082  1.0000
  O   O20       1.0  0.83591  0.9076399999999998  0.04715  1.0000
  C   C41       1.0  0.78626  0.06139000000000001  0.07359999999999998  1.0000
  C   C42       1.0  0.27693  0.08722999999999995  0.08954  1.0000
  C   C43       1.0  0.9124699999999999  0.7555799999999998  0.05926  1.0000
  O   O21       1.0  0.24743  0.007719999999999999  0.09596999999999999  1.0000
  O   O22       1.0  0.24297  0.09821  0.11858999999999999  1.0000
  O   O23       1.0  0.76834  0.017179999999999997  0.13482  1.0000
  O   O24       1.0  0.82736  0.04984999999999997  0.0521  1.0000
  O   O25       1.0  0.9785300000000001  0.05733999999999999  0.31383  1.0000
  O   O26       1.0  0.9718799999999995  0.8135599999999997  0.01924  1.0000
  O   O27       1.0  0.89765  0.7848399999999998  0.08864999999999999  1.0000
  C   C44       1.0  0.73927  0.84744  0.21911  1.0000
  O   O28       1.0  0.7976799999999997  0.9012499999999998  0.26104  1.0000
  O   O29       1.0  0.77005  0.8485799999999998  0.17757  1.0000
  O   O30       1.0  0.9570499999999996  0.9649799999999996  0.9508299999999998  1.0000
  Co  Co10      1.0  0.8873  0.97377  0.62209  1.0000
  Co  Co11      1.0  0.9658799999999997  0.9236399999999997  0.5622099999999999  1.0000
  Co  Co12      1.0  0.90271  0.048460000000000045  0.7282099999999999  1.0000
  O   O31       1.0  0.9572000000000002  0.02296999999999999  0.68956  1.0000
  O   O32       1.0  0.85349  0.91482  0.55346  1.0000
  C   C45       1.0  0.8494599999999997  0.11175999999999997  0.57735  1.0000
  C   C46       1.0  0.9873000000000001  0.97273  0.85844  1.0000
  C   C47       1.0  0.2909499999999999  0.08897  0.5975799999999999  1.0000
  C   C48       1.0  0.92739  0.76205  0.56077  1.0000
  O   O33       1.0  0.26184  0.012540000000000003  0.59662  1.0000
  O   O34       1.0  0.26111999999999996  0.09268000000000001  0.6359199999999999  1.0000
  O   O35       1.0  0.90842  0.13812  0.63451  1.0000
  O   O36       1.0  0.8424500000000001  0.056960000000000004  0.5578  1.0000
  O   O37       1.0  0.9060299999999999  0.9584699999999997  0.82032  1.0000
  O   O38       1.0  0.9848099999999997  0.8215699999999998  0.51923  1.0000
  O   O39       1.0  0.9120499999999998  0.7893099999999997  0.59155  1.0000
  C   C49       1.0  0.7419800000000001  0.87137  0.69907  1.0000
  O   O40       1.0  0.7664000000000001  0.9499300000000002  0.68917  1.0000
  O   O41       1.0  0.7871199999999999  0.8635699999999996  0.67874  1.0000
  O   O42       1.0  0.9715799999999998  0.9726099999999995  0.456  1.0000
  C   C50       1.0  0.28017999999999993  0.375  0.91558  1.0000
  F   F14       1.0  0.37665  0.4371499999999998  0.92331  1.0000
  C   C51       1.0  0.5745699999999997  0.7292799999999998  0.8085199999999999  1.0000
  C   C52       1.0  0.49507000000000007  0.72263  0.75818  1.0000
  C   C53       1.0  0.49303  0.74872  0.6870099999999999  1.0000
  C   C54       1.0  0.57018  0.7790499999999998  0.66832  1.0000
  C   C55       1.0  0.65262  0.7934899999999998  0.71857  1.0000
  C   C56       1.0  0.6500999999999999  0.7577499999999999  0.78931  1.0000
  C   C57       1.0  0.7239799999999997  0.7444299999999998  0.8447199999999999  1.0000
  H   H8        1.0  0.5740199999999999  0.7047499999999998  0.86303  1.0000
  H   H9        1.0  0.56992  0.7998299999999999  0.6141199999999999  1.0000
  C   C58       1.0  0.40772000000000014  0.7421299999999998  0.63126  1.0000
  F   F15       1.0  0.7721099999999999  0.7961799999999997  0.89046  1.0000
  F   F16       1.0  0.78779  0.76568  0.81738  1.0000
  F   F17       1.0  0.6800999999999999  0.65636  0.8811199999999999  1.0000
  F   F18       1.0  0.38442999999999994  0.7832999999999998  0.64178  1.0000
  F   F19       1.0  0.33207000000000003  0.65388  0.63374  1.0000
  F   F20       1.0  0.4247599999999998  0.7826999999999998  0.5654999999999999  1.0000
  C   C59       1.0  0.3075599999999997  0.7592399999999998  0.8163799999999999  1.0000
  C   C60       1.0  0.24315999999999974  0.6738799999999997  0.8037399999999999  1.0000
  C   C61       1.0  0.27765999999999996  0.8112799999999998  0.7982999999999999  1.0000
  C   C62       1.0  0.3500000000000001  0.90657  0.80428  1.0000
  H   H10       1.0  0.38198999999999966  0.7876199999999995  0.83566  1.0000
  F   F21       1.0  0.42993999999999977  0.9182899999999997  0.8551699999999999  1.0000
  F   F22       1.0  0.31377999999999967  0.9305599999999996  0.82158  1.0000
  F   F23       1.0  0.3751399999999999  0.9614899999999998  0.74155  1.0000
  C   C63       1.0  0.23678999999999994  0.3908299999999999  0.30481  1.0000
  H   H11       1.0  0.23434000000000002  0.30016  0.28417999999999993  1.0000
  C   C64       1.0  0.33097  0.42266999999999993  0.3567199999999999  1.0000
  F   F24       1.0  0.91081  0.26166000000000006  0.2565799999999999  1.0000
  F   F25       1.0  0.91215  0.15253  0.26886  1.0000
  F   F26       1.0  0.8941700000000001  0.23888999999999996  0.16242  1.0000
  F   F27       1.0  0.3408599999999999  0.4568899999999998  0.40133  1.0000
  F   F28       1.0  0.4031799999999998  0.4871899999999998  0.32217  1.0000
  F   F29       1.0  0.33810000000000007  0.3529099999999999  0.39637  1.0000
  C   C65       1.0  0.6274299999999998  0.7427199999999998  0.29398  1.0000
  C   C66       1.0  0.64207  0.77654  0.22742  1.0000
  C   C67       1.0  0.56646  0.7669599999999998  0.1696  1.0000
  C   C68       1.0  0.4882499999999998  0.7474699999999997  0.17789  1.0000
  C   C69       1.0  0.47774  0.7229  0.24434999999999998  1.0000
  C   C70       1.0  0.5490799999999999  0.7217699999999998  0.30329  1.0000
  C   C71       1.0  0.5485399999999999  0.7107599999999998  0.37467  1.0000
  H   H12       1.0  0.68327  0.74376  0.33849  1.0000
  H   H13       1.0  0.43199000000000015  0.74504  0.13317  1.0000
  C   C72       1.0  0.5664999999999998  0.7716599999999998  0.1006  1.0000
  F   F30       1.0  0.6169300000000001  0.7003799999999999  0.42602  1.0000
  F   F31       1.0  0.4626899999999998  0.6371699999999998  0.39112  1.0000
  F   F32       1.0  0.56661  0.78562  0.37539  1.0000
  F   F33       1.0  0.59108  0.7196  0.11096  1.0000
  F   F34       1.0  0.63063  0.85817  0.06991  1.0000
  F   F35       1.0  0.47859999999999986  0.7411999999999997  0.055459999999999995  1.0000
  C   C73       1.0  0.23949999999999974  0.6858899999999998  0.29856999999999995  1.0000
  C   C74       1.0  0.3034500000000001  0.7700799999999999  0.31459  1.0000
  C   C75       1.0  0.2711999999999998  0.8209399999999998  0.29432  1.0000
  H   H14       1.0  0.32155000000000006  0.89049  0.29507  1.0000
  C   C76       1.0  0.40353999999999995  0.8040899999999997  0.35605  1.0000
  F   F36       1.0  0.4625599999999999  0.8562099999999998  0.31139999999999995  1.0000
  F   F37       1.0  0.4096599999999999  0.73443  0.40005  1.0000
  F   F38       1.0  0.4336299999999999  0.8550299999999997  0.39648999999999995  1.0000
  C   C77       1.0  0.8497399999999999  0.24181  0.49585999999999997  1.0000
  C   C78       1.0  0.7980600000000001  0.15201999999999988  0.53131  1.0000
  C   C79       1.0  0.7139600000000002  0.11531999999999998  0.54472  1.0000
  C   C80       1.0  0.69996  0.17204  0.54382  1.0000
  C   C81       1.0  0.758  0.26402  0.51599  1.0000
  C   C82       1.0  0.8279500000000001  0.29786000000000007  0.48519999999999996  1.0000
  C   C83       1.0  0.8839300000000001  0.39369999999999994  0.44523  1.0000
  H   H15       1.0  0.9117500000000002  0.26986  0.48187  1.0000
  H   H16       1.0  0.64135  0.1439699999999999  0.56232  1.0000
  C   C84       1.0  0.6383  0.016320000000000015  0.55982  1.0000
  F   F39       1.0  0.91961  0.4028599999999999  0.39988999999999997  1.0000
  F   F40       1.0  0.95852  0.44553000000000004  0.49138  1.0000
  F   F41       1.0  0.8286500000000001  0.42401  0.40626  1.0000
  F   F42       1.0  0.63683  0.9845  0.62911  1.0000
  F   F43       1.0  0.6526  0.97184  0.54387  1.0000
  F   F44       1.0  0.5513399999999999  0.9989999999999998  0.52033  1.0000
  C   C85       1.0  0.96155  0.6612  0.57761  1.0000
  C   C86       1.0  0.90375  0.6710199999999997  0.58595  1.0000
  C   C87       1.0  0.81629  0.5937300000000001  0.6025299999999999  1.0000
  C   C88       1.0  0.78197  0.51224  0.59702  1.0000
  C   C89       1.0  0.82984  0.5087499999999998  0.57003  1.0000
  C   C90       1.0  0.92472  0.5813799999999999  0.56752  1.0000
  C   C91       1.0  0.9856499999999999  0.5759599999999998  0.55139  1.0000
  H   H17       1.0  0.7135  0.4533  0.6068699999999999  1.0000
  C   C92       1.0  0.7596900000000002  0.59715  0.62608  1.0000
  F   F45       1.0  0.9545  0.57389  0.4826599999999999  1.0000
  F   F46       1.0  0.9813899999999999  0.5005999999999998  0.59399  1.0000
  F   F47       1.0  0.7260299999999997  0.6441599999999997  0.57168  1.0000
  F   F48       1.0  0.8159299999999998  0.6376899999999998  0.68076  1.0000
  F   F49       1.0  0.68339  0.51306  0.64857  1.0000
  C   C93       1.0  0.35949999999999993  0.18691999999999998  0.49486  1.0000
  C   C94       1.0  0.3699699999999999  0.1704699999999999  0.56577  1.0000
  C   C95       1.0  0.46071999999999996  0.2189299999999999  0.60762  1.0000
  C   C96       1.0  0.53957  0.2681  0.58168  1.0000
  C   C97       1.0  0.52934  0.27972  0.51208  1.0000
  C   C98       1.0  0.43895  0.24290999999999996  0.46709  1.0000
  C   C99       1.0  0.42696999999999996  0.25998999999999983  0.39058  1.0000
  H   H18       1.0  0.2894399999999999  0.1522199999999999  0.46239  1.0000
  H   H19       1.0  0.60925  0.2961899999999999  0.61585  1.0000
  C   C100      1.0  0.47368  0.21876999999999996  0.6795  1.0000
  F   F50       1.0  0.3345399999999999  0.22702999999999998  0.35407999999999995  1.0000
  F   F51       1.0  0.45325000000000004  0.21953  0.38269  1.0000
  F   F52       1.0  0.48289000000000004  0.35029  0.36212  1.0000
  F   F53       1.0  0.5671000000000002  0.2789599999999999  0.70797  1.0000
  F   F54       1.0  0.44398000000000004  0.13537  0.72326  1.0000
  F   F55       1.0  0.42188999999999993  0.24214999999999992  0.67576  1.0000
  C   C101      1.0  0.6696  0.16000999999999996  0.03210999999999999  1.0000
  C   C102      1.0  0.74284  0.25166  0.020759999999999997  1.0000
  C   C103      1.0  0.82478  0.28177  0.0072499999999999995  1.0000
  C   C104      1.0  0.83727  0.21817999999999996  0.01857  1.0000
  C   C105      1.0  0.76352  0.12674999999999995  0.03139  1.0000
  C   C106      1.0  0.67503  0.10071999999999998  0.02679  1.0000
  C   C107      1.0  0.58705  0.00826  0.02022  1.0000
  H   H20       1.0  0.60575  0.13543  0.04101  1.0000
  H   H21       1.0  0.90547  0.2397199999999999  0.02084  1.0000
  C   C108      1.0  0.90129  0.37954  0.98547  1.0000
  F   F56       1.0  0.5082999999999999  0.008270000000000013  0.9859599999999998  1.0000
  F   F57       1.0  0.5759699999999999  0.95157  0.08542  1.0000
  F   F58       1.0  0.5929999999999996  0.9775599999999995  0.98253  1.0000
  F   F59       1.0  0.95851  0.4137099999999999  0.04339  1.0000
  F   F60       1.0  0.8632999999999996  0.4254499999999998  0.93788  1.0000
  F   F61       1.0  0.9562799999999998  0.3923099999999998  0.95456  1.0000
  C   C109      1.0  0.7600699999999999  0.5045299999999998  0.09258  1.0000
  C   C110      1.0  0.81281  0.49827999999999995  0.07356  1.0000
  C   C111      1.0  0.9097199999999999  0.5683099999999998  0.07808  1.0000
  C   C112      1.0  0.9447100000000003  0.65012  0.08336999999999999  1.0000
  C   C113      1.0  0.8845099999999998  0.6627699999999997  0.0843  1.0000
  C   C114      1.0  0.79291  0.58739  0.09425  1.0000
  C   C115      1.0  0.7298  0.5945999999999998  0.10566  1.0000
  H   H22       1.0  0.68937  0.44689  0.0984  1.0000
  C   C116      1.0  0.97627  0.55621  0.07888  1.0000
  F   F62       1.0  0.64594  0.5125999999999998  0.11867999999999998  1.0000
  F   F63       1.0  0.70845  0.64848  0.04726  1.0000
  F   F64       1.0  0.7750899999999998  0.6299899999999998  0.16217  1.0000
  F   F65       1.0  0.9635  0.5577899999999999  0.01266  1.0000
  F   F66       1.0  0.9591900000000001  0.47632  0.12377  1.0000
  C   C117      1.0  0.34881  0.1824399999999999  0.98826  1.0000
  C   C118      1.0  0.35899  0.16445999999999994  0.05940999999999999  1.0000
  C   C119      1.0  0.4499000000000001  0.20783999999999994  0.10282  1.0000
  C   C120      1.0  0.52889  0.26077  0.07573  1.0000
  C   C121      1.0  0.51891  0.27593  0.00532  1.0000
  C   C122      1.0  0.42835999999999996  0.23813  0.9605499999999999  1.0000
  C   C123      1.0  0.41648  0.25449  0.88417  1.0000
  H   H23       1.0  0.27869  0.14960999999999997  0.95533  1.0000
  H   H24       1.0  0.59866  0.28844  0.10977  1.0000
  C   C124      1.0  0.46276  0.19549  0.17859  1.0000
  F   F67       1.0  0.32309999999999994  0.21553999999999993  0.84834  1.0000
  F   F68       1.0  0.44948  0.21949  0.87704  1.0000
  F   F69       1.0  0.46696  0.34475000000000006  0.8543499999999999  1.0000
  F   F70       1.0  0.42603  0.10764999999999998  0.21367  1.0000
  F   F71       1.0  0.41689  0.21955999999999998  0.18338  1.0000
  F   F72       1.0  0.55684  0.2473199999999999  0.21106  1.0000
