data_image0
_chemical_formula_structural       CoOCoO3COC2O5C2HCoOCoO3COC2O5C2HCoOCoO3COC2O5C2HCoOCoO3COC2O5C2HC6H2C3H5CH5C6H2C3H5CH5C6H2C3H5CH5C6H2C3H5CH5C6H2C3H5CH5C6H2C3H5CH5C6H2C3H5CH5C6H2C3H5CH5C6H2C3H5CH5C6H2C3H5CH5
_chemical_formula_sum              "Co8 O40 C120 H124"
_cell_length_a       15.02938
_cell_length_b       14.420339999999998
_cell_length_c       22.23022
_cell_angle_alpha    89.99673
_cell_angle_beta     89.98401
_cell_angle_gamma    83.73441999999999

_symmetry_space_group_name_H-M    'P 1'
_symmetry_Int_Tables_number       1

loop_
  _symmetry_equiv_pos_as_xyz
  'x,y,z'

loop_
  _atom_site_type_symbol
  _atom_site_label
  _atom_site_symmetry_multiplicity
  _atom_site_fract_x
  _atom_site_fract_y
  _atom_site_fract_z
  _atom_site_occupancy
  Co  Co1       1.0  0.45252  0.4087599999999999  0.25529  1.0000
  O   O1        1.0  0.33126  0.4158599999999999  0.29973  1.0000
  Co  Co2       1.0  0.60715  0.4919599999999999  0.17097  1.0000
  O   O2        1.0  0.49959999999999993  0.5349599999999999  0.24355  1.0000
  O   O3        1.0  0.53878  0.4094899999999999  0.12371000000000001  1.0000
  O   O4        1.0  0.44857999999999987  0.4067199999999999  0.35236  1.0000
  C   C1        1.0  0.45127  0.4176799999999999  0.12215  1.0000
  O   O5        1.0  0.5130399999999999  0.6172199999999998  0.16547  1.0000
  C   C2        1.0  0.7635099999999998  0.54309  0.15155  1.0000
  C   C3        1.0  0.61211  0.30562  0.23615  1.0000
  O   O6        1.0  0.71969  0.4939499999999999  0.11648000000000001  1.0000
  O   O7        1.0  0.71739  0.5656699999999998  0.19956999999999997  1.0000
  O   O8        1.0  0.53486  0.27777  0.24961  1.0000
  O   O9        1.0  0.60814  0.3960099999999999  0.23961999999999997  1.0000
  O   O10       1.0  0.4053199999999999  0.40271  0.17127  1.0000
  C   C4        1.0  0.36202  0.41429  0.35354  1.0000
  C   C5        1.0  0.4642  0.6051199999999999  0.21273  1.0000
  H   H1        1.0  0.34186  0.3856899999999999  0.16732  1.0000
  Co  Co3       1.0  0.41168  0.4777  0.7481800000000001  1.0000
  O   O11       1.0  0.39747  0.3608499999999999  0.69643  1.0000
  Co  Co4       1.0  0.51279  0.61183  0.8415199999999999  1.0000
  O   O12       1.0  0.53925  0.4995199999999999  0.7675599999999999  1.0000
  O   O13       1.0  0.41466  0.55827  0.88251  1.0000
  O   O14       1.0  0.41911  0.4849599999999999  0.65163  1.0000
  C   C6        1.0  0.4042399999999999  0.4691599999999999  0.8815  1.0000
  O   O15       1.0  0.6128  0.4926699999999999  0.84911  1.0000
  C   C7        1.0  0.5986500000000001  0.75149  0.86755  1.0000
  C   C8        1.0  0.33843  0.6528  0.77192  1.0000
  O   O16       1.0  0.5400000000000001  0.71746  0.9006400000000001  1.0000
  O   O17       1.0  0.6090999999999999  0.70581  0.81753  1.0000
  O   O18       1.0  0.29998999999999987  0.5814099999999999  0.75362  1.0000
  O   O19       1.0  0.42528  0.63531  0.77029  1.0000
  O   O20       1.0  0.3898399999999999  0.42654  0.83004  1.0000
  C   C9        1.0  0.40561  0.39861  0.64462  1.0000
  C   C10       1.0  0.59497  0.4479899999999999  0.80054  1.0000
  H   H2        1.0  0.36242  0.36552  0.83079  1.0000
  Co  Co5       1.0  0.0015000000000000091  0.85941  0.26771  1.0000
  O   O21       1.0  0.004749999999999992  0.73577  0.21978000000000003  1.0000
  Co  Co6       1.0  0.07868  0.01876  0.35573  1.0000
  O   O22       1.0  0.12246000000000003  0.9097099999999998  0.28059  1.0000
  O   O23       1.0  0.018860000000000033  0.9384599999999997  0.41161999999999993  1.0000
  O   O24       1.0  0.99738  0.8615899999999997  0.17088  1.0000
  C   C11       1.0  0.97171  0.87038  0.39647  1.0000
  O   O25       1.0  0.20094999999999996  0.92614  0.35922  1.0000
  C   C12       1.0  0.12612  0.18288999999999994  0.37441  1.0000
  C   C13       1.0  0.8977  0.020649999999999995  0.29193  1.0000
  O   O26       1.0  0.08119  0.13607  0.41031  1.0000
  O   O27       1.0  0.14409  0.13627  0.32536  1.0000
  O   O28       1.0  0.8735100000000001  0.9404199999999998  0.2757  1.0000
  O   O29       1.0  0.98414  0.019469999999999994  0.2882  1.0000
  O   O30       1.0  0.99749  0.81332  0.35176  1.0000
  C   C14       1.0  0.0008800000000000084  0.7719  0.16681  1.0000
  C   C15       1.0  0.18967000000000003  0.8743399999999998  0.31266  1.0000
  H   H3        1.0  0.9919499999999999  0.7443499999999997  0.35618  1.0000
  Co  Co7       1.0  0.89523  0.99563  0.73348  1.0000
  O   O31       1.0  0.78731  0.9712999999999998  0.78731  1.0000
  Co  Co8       1.0  0.019309999999999997  0.10378  0.6398  1.0000
  O   O32       1.0  0.9156699999999998  0.12998999999999997  0.71758  1.0000
  O   O33       1.0  0.96835  0.004629999999999998  0.59333  1.0000
  O   O34       1.0  0.90805  0.99522  0.82991  1.0000
  C   C16       1.0  0.89203  0.9697299999999998  0.60291  1.0000
  O   O35       1.0  0.90593  0.20896  0.63645  1.0000
  C   C17       1.0  0.15522  0.18976999999999994  0.6147  1.0000
  C   C18       1.0  0.06354000000000003  0.9209699999999997  0.70609  1.0000
  O   O36       1.0  0.12099999999999995  0.13127  0.5807  1.0000
  O   O37       1.0  0.11213999999999999  0.20138  0.66493  1.0000
  O   O38       1.0  0.9944800000000001  0.87935  0.72162  1.0000
  O   O39       1.0  0.044589999999999984  0.01087  0.7092  1.0000
  O   O40       1.0  0.8427799999999998  0.99081  0.65129  1.0000
  C   C19       1.0  0.82683  0.97687  0.8383700000000001  1.0000
  C   C20       1.0  0.86563  0.18978999999999993  0.6859  1.0000
  H   H4        1.0  0.776  0.9864199999999997  0.64944  1.0000
  C   C21       1.0  0.8598299999999998  0.91028  0.55545  1.0000
  C   C22       1.0  0.8132000000000001  0.95228  0.50539  1.0000
  C   C23       1.0  0.8300399999999998  0.9131399999999997  0.44798  1.0000
  C   C24       1.0  0.9037299999999999  0.8461  0.43992  1.0000
  C   C25       1.0  0.93137  0.7895799999999997  0.48999  1.0000
  C   C26       1.0  0.90557  0.8209599999999998  0.54803  1.0000
  H   H5        1.0  0.7992100000000001  0.9483299999999999  0.4089  1.0000
  H   H6        1.0  0.93109  0.78189  0.58717  1.0000
  C   C27       1.0  0.75948  0.04675999999999999  0.51061  1.0000
  C   C28       1.0  0.9872099999999999  0.6966699999999999  0.48207  1.0000
  C   C29       1.0  0.8175999999999998  0.12511  0.49737  1.0000
  H   H7        1.0  0.72901  0.05689999999999999  0.55595  1.0000
  H   H8        1.0  0.7031  0.05099  0.47811  1.0000
  H   H9        1.0  0.8599299999999999  0.13729  0.53665  1.0000
  H   H10       1.0  0.77414  0.19052999999999998  0.48753  1.0000
  H   H11       1.0  0.8626699999999998  0.10797999999999998  0.45847000000000004  1.0000
  C   C30       1.0  0.9295800000000001  0.6225899999999998  0.46023  1.0000
  H   H12       1.0  0.01899  0.67274  0.52534  1.0000
  H   H13       1.0  0.04293000000000001  0.7027699999999999  0.45013999999999993  1.0000
  H   H14       1.0  0.8755999999999998  0.61384  0.49324000000000007  1.0000
  H   H15       1.0  0.97148  0.55479  0.45535000000000003  1.0000
  H   H16       1.0  0.8991199999999998  0.64232  0.41589  1.0000
  C   C31       1.0  0.8026099999999998  0.91931  0.88874  1.0000
  C   C32       1.0  0.82762  0.8223699999999998  0.8849799999999999  1.0000
  C   C33       1.0  0.76013  0.7624299999999998  0.88509  1.0000
  C   C34       1.0  0.6708199999999997  0.7994899999999998  0.89385  1.0000
  C   C35       1.0  0.65305  0.89045  0.91791  1.0000
  C   C36       1.0  0.7220000000000001  0.94885  0.9179699999999998  1.0000
  H   H17       1.0  0.77613  0.6889899999999998  0.87484  1.0000
  H   H18       1.0  0.70769  0.021099999999999994  0.9312499999999999  1.0000
  C   C37       1.0  0.92485  0.7830199999999998  0.88064  1.0000
  C   C38       1.0  0.55999  0.9286799999999997  0.9376100000000002  1.0000
  C   C39       1.0  0.9665  0.7704999999999997  0.94309  1.0000
  H   H19       1.0  0.9640000000000001  0.8288499999999999  0.85358  1.0000
  H   H20       1.0  0.93094  0.71425  0.8575  1.0000
  H   H21       1.0  0.96572  0.8390699999999998  0.96596  1.0000
  H   H22       1.0  0.03703000000000003  0.7390399999999998  0.93902  1.0000
  H   H23       1.0  0.9292899999999996  0.72347  0.9708100000000001  1.0000
  C   C40       1.0  0.50677  0.9745199999999999  0.88506  1.0000
  H   H24       1.0  0.56411  0.98145  0.9737  1.0000
  H   H25       1.0  0.52366  0.8728599999999997  0.95725  1.0000
  H   H26       1.0  0.5389  0.03552  0.86855  1.0000
  H   H27       1.0  0.43773999999999996  0.9982499999999997  0.90025  1.0000
  H   H28       1.0  0.5025199999999999  0.92467  0.84741  1.0000
  C   C41       1.0  0.66035  0.37568  0.77271  1.0000
  C   C42       1.0  0.72347  0.31791  0.8072400000000001  1.0000
  C   C43       1.0  0.7953  0.26607  0.7775700000000001  1.0000
  C   C44       1.0  0.79593  0.25672  0.71452  1.0000
  C   C45       1.0  0.72632  0.3058799999999999  0.68042  1.0000
  C   C46       1.0  0.661  0.36657  0.7097  1.0000
  H   H29       1.0  0.84946  0.23059999999999994  0.80379  1.0000
  H   H30       1.0  0.6105  0.4072699999999999  0.68302  1.0000
  C   C47       1.0  0.71442  0.3087899999999999  0.8751499999999999  1.0000
  C   C48       1.0  0.72112  0.29628  0.61276  1.0000
  C   C49       1.0  0.72017  0.20704999999999996  0.8955200000000001  1.0000
  H   H31       1.0  0.64934  0.34194  0.89202  1.0000
  H   H32       1.0  0.7681  0.3434199999999999  0.89746  1.0000
  H   H33       1.0  0.6732  0.16866999999999993  0.86908  1.0000
  H   H34       1.0  0.7016899999999998  0.20416999999999993  0.94381  1.0000
  H   H35       1.0  0.7892899999999999  0.17207  0.89059  1.0000
  C   C50       1.0  0.76975  0.36994  0.5809  1.0000
  H   H36       1.0  0.65009  0.30569  0.59818  1.0000
  H   H37       1.0  0.74713  0.22525999999999996  0.59797  1.0000
  H   H38       1.0  0.73483  0.4406099999999999  0.58958  1.0000
  H   H39       1.0  0.77016  0.3571299999999999  0.53165  1.0000
  H   H40       1.0  0.83991  0.36800999999999995  0.5967  1.0000
  C   C51       1.0  0.35231  0.36940999999999996  0.59465  1.0000
  C   C52       1.0  0.37131  0.27706  0.57401  1.0000
  C   C53       1.0  0.3027  0.21856999999999993  0.57447  1.0000
  C   C54       1.0  0.21615  0.25439  0.59192  1.0000
  C   C55       1.0  0.19384  0.35236999999999996  0.59429  1.0000
  C   C56       1.0  0.26334  0.40998  0.59172  1.0000
  H   H41       1.0  0.31816999999999995  0.14439999999999997  0.56649  1.0000
  H   H42       1.0  0.24860000000000002  0.4844299999999999  0.59887  1.0000
  C   C57       1.0  0.46599  0.23775  0.55879  1.0000
  C   C58       1.0  0.09749  0.39576  0.59928  1.0000
  C   C59       1.0  0.51048  0.18019  0.61048  1.0000
  H   H43       1.0  0.5068199999999998  0.29496999999999995  0.5471  1.0000
  H   H44       1.0  0.46527  0.19220999999999994  0.51855  1.0000
  H   H45       1.0  0.51885  0.22485  0.65028  1.0000
  H   H46       1.0  0.5777399999999998  0.14845999999999998  0.59607  1.0000
  H   H47       1.0  0.47022  0.12310999999999997  0.62332  1.0000
  C   C60       1.0  0.046800000000000015  0.3873099999999999  0.54048  1.0000
  H   H48       1.0  0.09487000000000001  0.4710799999999999  0.61077  1.0000
  H   H49       1.0  0.06201000000000002  0.3635799999999999  0.63622  1.0000
  H   H50       1.0  0.07721  0.42673999999999995  0.50455  1.0000
  H   H51       1.0  0.9762  0.41758999999999996  0.54622  1.0000
  H   H52       1.0  0.04755999999999998  0.31314  0.52681  1.0000
  C   C61       1.0  0.29448  0.7470699999999998  0.7601599999999998  1.0000
  C   C62       1.0  0.23736999999999997  0.79262  0.8040000000000002  1.0000
  C   C63       1.0  0.16835999999999998  0.86019  0.78588  1.0000
  C   C64       1.0  0.15283000000000002  0.8787899999999997  0.7246099999999999  1.0000
  C   C65       1.0  0.217  0.84322  0.68181  1.0000
  C   C66       1.0  0.28863  0.77856  0.70028  1.0000
  H   H53       1.0  0.12250000000000003  0.8931799999999998  0.81915  1.0000
  H   H54       1.0  0.33470000000000005  0.7461099999999998  0.66695  1.0000
  C   C67       1.0  0.2501  0.7704999999999997  0.8702800000000002  1.0000
  C   C68       1.0  0.20708  0.8691999999999998  0.61599  1.0000
  C   C69       1.0  0.32154999999999995  0.82534  0.89725  1.0000
  H   H55       1.0  0.26884  0.6947699999999998  0.87773  1.0000
  H   H56       1.0  0.1864  0.78859  0.89519  1.0000
  H   H57       1.0  0.38531  0.81079  0.87211  1.0000
  H   H58       1.0  0.33333  0.8047199999999998  0.94496  1.0000
  H   H59       1.0  0.29941  0.9013499999999998  0.89543  1.0000
  C   C70       1.0  0.15804  0.7985199999999998  0.5816  1.0000
  H   H60       1.0  0.27424  0.8718599999999997  0.59548  1.0000
  H   H61       1.0  0.17058000000000004  0.9399699999999998  0.61059  1.0000
  H   H62       1.0  0.19768000000000002  0.7288199999999999  0.58204  1.0000
  H   H63       1.0  0.14807  0.82143  0.53415  1.0000
  H   H64       1.0  0.09154999999999999  0.79277  0.60209  1.0000
  C   C71       1.0  0.40556  0.68394  0.24136  1.0000
  C   C72       1.0  0.38283  0.6832599999999998  0.30354  1.0000
  C   C73       1.0  0.30513  0.7382999999999997  0.32308  1.0000
  C   C74       1.0  0.26495  0.81084  0.28705  1.0000
  C   C75       1.0  0.303  0.82676  0.22989000000000004  1.0000
  C   C76       1.0  0.3682  0.7588999999999998  0.20580000000000004  1.0000
  H   H65       1.0  0.28139  0.73067  0.36869  1.0000
  H   H66       1.0  0.39287000000000005  0.7673699999999998  0.16056  1.0000
  C   C77       1.0  0.45133  0.64769  0.35065  1.0000
  C   C78       1.0  0.28326  0.91917  0.19744  1.0000
  C   C79       1.0  0.5307099999999998  0.70545  0.35148  1.0000
  H   H67       1.0  0.4755499999999999  0.57354  0.34436  1.0000
  H   H68       1.0  0.42045  0.65155  0.39619999999999994  1.0000
  H   H69       1.0  0.5768900000000001  0.6810099999999998  0.38859  1.0000
  H   H70       1.0  0.50726  0.7803499999999998  0.35891  1.0000
  H   H71       1.0  0.56827  0.6976199999999998  0.30842  1.0000
  C   C80       1.0  0.22243000000000002  0.9103999999999999  0.14332  1.0000
  H   H72       1.0  0.3471699999999999  0.94275  0.18139  1.0000
  H   H73       1.0  0.25312  0.97536  0.22762  1.0000
  H   H74       1.0  0.16309999999999994  0.8758399999999997  0.15642  1.0000
  H   H75       1.0  0.25919  0.86908  0.10721  1.0000
  H   H76       1.0  0.19954999999999992  0.9808299999999998  0.12535  1.0000
  C   C81       1.0  0.82869  0.60189  0.12751  1.0000
  C   C82       1.0  0.9196999999999999  0.5669099999999998  0.12009999999999998  1.0000
  C   C83       1.0  0.98276  0.6305699999999997  0.11081999999999999  1.0000
  C   C84       1.0  0.95623  0.72603  0.11838  1.0000
  C   C85       1.0  0.86613  0.75781  0.10602000000000002  1.0000
  C   C86       1.0  0.8014200000000001  0.69562  0.11372  1.0000
  H   H77       1.0  0.05346999999999999  0.60579  0.10931  1.0000
  H   H78       1.0  0.73083  0.71993  0.10984  1.0000
  C   C87       1.0  0.9497799999999998  0.46323  0.12143999999999999  1.0000
  C   C88       1.0  0.8401500000000001  0.8541199999999998  0.0805  1.0000
  C   C89       1.0  0.9391899999999997  0.41952  0.0597  1.0000
  H   H79       1.0  0.91151  0.42725  0.15535  1.0000
  H   H80       1.0  0.021270000000000008  0.45062  0.13508  1.0000
  H   H81       1.0  0.86793  0.42831  0.04548  1.0000
  H   H82       1.0  0.96227  0.34376  0.061720000000000004  1.0000
  H   H83       1.0  0.98009  0.45236  0.02576  1.0000
  C   C90       1.0  0.7782099999999997  0.9146099999999998  0.12274  1.0000
  H   H84       1.0  0.80554  0.84753  0.03677  1.0000
  H   H85       1.0  0.9004899999999998  0.89009  0.07129  1.0000
  H   H86       1.0  0.71264  0.8864499999999997  0.12708  1.0000
  H   H87       1.0  0.76608  0.98641  0.10427  1.0000
  H   H88       1.0  0.8089500000000001  0.9179399999999998  0.16788  1.0000
  C   C91       1.0  0.6959099999999999  0.24651  0.25217  1.0000
  C   C92       1.0  0.7150400000000001  0.22012999999999994  0.31261  1.0000
  C   C93       1.0  0.78218  0.14679  0.32481  1.0000
  C   C94       1.0  0.8378  0.10722999999999999  0.279  1.0000
  C   C95       1.0  0.82636  0.14252999999999993  0.21948  1.0000
  C   C96       1.0  0.75387  0.21027999999999994  0.20641999999999996  1.0000
  H   H89       1.0  0.78972  0.11936999999999998  0.36988  1.0000
  H   H90       1.0  0.7426  0.2344  0.16057  1.0000
  C   C97       1.0  0.66733  0.27166  0.36476  1.0000
  C   C98       1.0  0.89418  0.11396999999999997  0.17065  1.0000
  C   C99       1.0  0.59599  0.21649  0.39161000000000007  1.0000
  H   H91       1.0  0.63645  0.3421599999999999  0.35166  1.0000
  H   H92       1.0  0.717  0.2830399999999999  0.40029  1.0000
  H   H93       1.0  0.54069  0.21212999999999996  0.35911  1.0000
  H   H94       1.0  0.5687  0.25205  0.43299  1.0000
  H   H95       1.0  0.6246699999999997  0.14479999999999996  0.40373  1.0000
  C   C100      1.0  0.97136  0.17449  0.1724  1.0000
  H   H96       1.0  0.86184  0.12153  0.12568  1.0000
  H   H97       1.0  0.92094  0.03951999999999999  0.17465  1.0000
  H   H98       1.0  0.94599  0.24886999999999998  0.16507  1.0000
  H   H99       1.0  0.020070000000000005  0.15223999999999993  0.13626  1.0000
  H   H100      1.0  0.0065099999999999976  0.16744  0.21636000000000002  1.0000
  C   C101      1.0  0.18663  0.24736  0.39794999999999997  1.0000
  C   C102      1.0  0.27667  0.21620999999999996  0.41279000000000005  1.0000
  C   C103      1.0  0.3382  0.28229  0.4177  1.0000
  C   C104      1.0  0.31177  0.3749499999999999  0.40168  1.0000
  C   C105      1.0  0.22011  0.40764  0.40650000000000003  1.0000
  C   C106      1.0  0.15725  0.3428699999999999  0.40088999999999997  1.0000
  H   H101      1.0  0.40840999999999994  0.25915  0.42369999999999997  1.0000
  H   H102      1.0  0.08688000000000001  0.3667899999999999  0.39491  1.0000
  C   C107      1.0  0.30855  0.11364  0.42105000000000004  1.0000
  C   C108      1.0  0.18959  0.51139  0.40412  1.0000
  C   C109      1.0  0.35729  0.07254999999999999  0.36518  1.0000
  H   H103      1.0  0.25243  0.07267999999999997  0.43233  1.0000
  H   H104      1.0  0.35553  0.10513999999999997  0.45971  1.0000
  H   H105      1.0  0.31346000000000007  0.08083999999999998  0.32497  1.0000
  H   H106      1.0  0.37758999999999987  0.9969699999999998  0.37227  1.0000
  H   H107      1.0  0.41843  0.10731999999999997  0.35663  1.0000
  C   C110      1.0  0.22316000000000003  0.5627399999999999  0.45822  1.0000
  H   H108      1.0  0.11538  0.52433  0.40323  1.0000
  H   H109      1.0  0.21386000000000002  0.54203  0.3621400000000001  1.0000
  H   H110      1.0  0.19129  0.54046  0.50002  1.0000
  H   H111      1.0  0.20506000000000002  0.6389599999999998  0.45267999999999997  1.0000
  H   H112      1.0  0.29711  0.5494299999999999  0.46237000000000006  1.0000
  C   C111      1.0  0.40888  0.40810999999999986  0.06286  1.0000
  C   C112      1.0  0.34207  0.4766999999999999  0.04066  1.0000
  C   C113      1.0  0.32473  0.48025  0.97864  1.0000
  C   C114      1.0  0.38109  0.4262  0.9388700000000001  1.0000
  C   C115      1.0  0.43461  0.3474099999999999  0.96141  1.0000
  C   C116      1.0  0.44688000000000005  0.3381899999999999  0.02374  1.0000
  H   H113      1.0  0.27498  0.53331  0.96085  1.0000
  H   H114      1.0  0.4906099999999999  0.2798099999999999  0.04153  1.0000
  C   C117      1.0  0.29047  0.54786  0.08145  1.0000
  C   C118      1.0  0.47013  0.26838  0.92033  1.0000
  C   C119      1.0  0.31394  0.64633  0.06869  1.0000
  H   H115      1.0  0.30167  0.53323  0.12983  1.0000
  H   H116      1.0  0.21766000000000002  0.5460799999999999  0.0735  1.0000
  H   H117      1.0  0.38676  0.6499  0.07496  1.0000
  H   H118      1.0  0.27621  0.69577  0.10014  1.0000
  H   H119      1.0  0.29496  0.6682  0.02212  1.0000
  C   C120      1.0  0.39744  0.20501999999999995  0.90694  1.0000
  H   H120      1.0  0.52786  0.22586  0.94158  1.0000
  H   H121      1.0  0.49597  0.29516  0.87772  1.0000
  H   H122      1.0  0.38941  0.15843  0.9458999999999999  1.0000
  H   H123      1.0  0.41648  0.16207999999999995  0.86663  1.0000
  H   H124      1.0  0.33193  0.24591999999999994  0.8976200000000001  1.0000
