data_image0
_chemical_formula_structural       Zn2O3COCO6Zn3C2OZnO4COCO4ZnC2H2Zn2O3COCO6Zn3C2OZnO4COCO4ZnC2H2C2NC2N3HC2HC2NC2N3HC2HC2NC2N3HC2HC2NC2N3HC2HC2NC2N3HC2HC2NC2N3HC2HC2NC2N3HC2HC2NC2N3HC2H
_chemical_formula_sum              "Zn14 O40 C64 H20 N32"
_cell_length_a       11.747
_cell_length_b       13.50129
_cell_length_c       18.4377
_cell_angle_alpha    83.56116
_cell_angle_beta     83.56115
_cell_angle_gamma    78.07913999999998

_space_group_name_H-M_alt    "P 1"
_space_group_IT_number       1

loop_
  _space_group_symop_operation_xyz
  'x, y, z'

loop_
  _atom_site_type_symbol
  _atom_site_label
  _atom_site_symmetry_multiplicity
  _atom_site_fract_x
  _atom_site_fract_y
  _atom_site_fract_z
  _atom_site_occupancy
  Zn  Zn1       1.0  0.02465000000000005  0.2601099999999999  0.9679999999999999  1.0000
  Zn  Zn2       1.0  0.7418000000000002  0.2605599999999999  0.9851900000000001  1.0000
  O   O1        1.0  0.52855  0.18525999999999995  0.9507900000000001  1.0000
  O   O2        1.0  0.56645  0.30348  0.01545  1.0000
  O   O3        1.0  0.6929400000000002  0.9449399999999999  0.91431  1.0000
  C   C1        1.0  0.23848000000000003  0.26041  0.8782800000000001  1.0000
  O   O4        1.0  0.74109  0.11699  0.01718  1.0000
  C   C2        1.0  0.8264400000000002  0.41874  0.01135  1.0000
  O   O5        1.0  0.18808000000000008  0.27377999999999997  0.94466  1.0000
  O   O6        1.0  0.34987  0.26239  0.86405  1.0000
  O   O7        1.0  0.9087500000000002  0.19434000000000004  0.94952  1.0000
  O   O8        1.0  0.85817  0.005300000000000014  0.87385  1.0000
  O   O9        1.0  0.76025  0.40005  0.96394  1.0000
  O   O10       1.0  0.9396500000000001  0.4034399999999999  0.9926800000000001  1.0000
  Zn  Zn3       1.0  0.8873800000000001  0.8557  0.11823000000000002  1.0000
  Zn  Zn4       1.0  0.03066000000000003  0.8571999999999999  0.96697  1.0000
  Zn  Zn5       1.0  0.9002500000000004  0.057929999999999995  0.98937  1.0000
  C   C3        1.0  0.030069999999999982  0.67419  0.04553  1.0000
  C   C4        1.0  0.030670000000000006  0.92007  0.19458  1.0000
  O   O11       1.0  0.9637600000000001  0.12295  0.10075  1.0000
  Zn  Zn6       1.0  0.16161000000000006  0.9886799999999998  0.03197  1.0000
  O   O12       1.0  0.99611  0.7248  0.98469  1.0000
  O   O13       1.0  0.004870000000000032  0.7180899999999999  0.10755  1.0000
  O   O14       1.0  0.9338400000000001  0.88541  0.2067  1.0000
  O   O15       1.0  0.10336000000000006  0.8914199999999999  0.13703  1.0000
  C   C5        1.0  0.2864800000000001  0.83503  0.9397100000000002  1.0000
  O   O16       1.0  0.8861700000000001  0.9206599999999998  0.02642  1.0000
  C   C6        1.0  0.06505000000000001  0.14977999999999994  0.11032  1.0000
  O   O17       1.0  0.19459999999999997  0.80523  0.92112  1.0000
  O   O18       1.0  0.28262000000000004  0.8710599999999998  0.0036100000000000004  1.0000
  O   O19       1.0  0.16428  0.09887999999999998  0.08231  1.0000
  O   O20       1.0  0.05626000000000001  0.99472  0.9606300000000001  1.0000
  Zn  Zn7       1.0  0.6424700000000001  0.06009  0.9681600000000001  1.0000
  C   C7        1.0  0.50137  0.2378  0.0079  1.0000
  C   C8        1.0  0.78677  0.9425299999999998  0.86856  1.0000
  H   H1        1.0  0.08521  0.019190000000000002  0.91068  1.0000
  H   H2        1.0  0.72386  0.10417999999999998  0.07069  1.0000
  Zn  Zn8       1.0  0.35178  0.5956899999999999  0.58845  1.0000
  Zn  Zn9       1.0  0.39113  0.6548299999999999  0.41935  1.0000
  O   O21       1.0  0.5661700000000002  0.8032799999999999  0.36248  1.0000
  O   O22       1.0  0.40601000000000015  0.7526999999999998  0.32905  1.0000
  O   O23       1.0  0.72958  0.6595  0.4981300000000001  1.0000
  C   C9        1.0  0.4137400000000001  0.5279499999999998  0.73567  1.0000
  O   O24       1.0  0.5509099999999999  0.5833  0.3998  1.0000
  C   C10       1.0  0.21937000000000004  0.7785599999999999  0.50587  1.0000
  O   O25       1.0  0.3840900000000001  0.6083099999999998  0.68954  1.0000
  O   O26       1.0  0.48216000000000026  0.44640999999999986  0.71153  1.0000
  O   O27       1.0  0.39403  0.53914  0.4985800000000001  1.0000
  O   O28       1.0  0.62486  0.54999  0.56697  1.0000
  O   O29       1.0  0.23457000000000017  0.7242699999999997  0.44959  1.0000
  O   O30       1.0  0.27860000000000007  0.74551  0.56331  1.0000
  Zn  Zn10      1.0  0.8334500000000002  0.33717  0.3938400000000001  1.0000
  Zn  Zn11      1.0  0.71147  0.29226999999999986  0.54116  1.0000
  Zn  Zn12      1.0  0.5505400000000001  0.4703799999999999  0.47243000000000007  1.0000
  C   C11       1.0  0.9635900000000001  0.26459  0.5166  1.0000
  C   C12       1.0  0.7696500000000002  0.16957999999999995  0.38192  1.0000
  O   O31       1.0  0.44736000000000004  0.40403  0.37946  1.0000
  Zn  Zn13      1.0  0.5328300000000001  0.23715  0.49410999999999994  1.0000
  O   O32       1.0  0.87573  0.21831  0.53468  1.0000
  O   O33       1.0  0.96287  0.3286700000000001  0.4577399999999999  1.0000
  O   O34       1.0  0.86975  0.19883  0.37366  1.0000
  O   O35       1.0  0.7192300000000003  0.15817999999999993  0.44923  1.0000
  C   C13       1.0  0.60046  0.13446  0.63288  1.0000
  O   O36       1.0  0.71309  0.40292  0.45170999999999994  1.0000
  C   C14       1.0  0.41251  0.31716  0.37444  1.0000
  O   O37       1.0  0.6753100000000002  0.19575999999999996  0.62994  1.0000
  O   O38       1.0  0.5383300000000001  0.13505  0.5778000000000001  1.0000
  O   O39       1.0  0.4652300000000002  0.23277999999999993  0.40812000000000004  1.0000
  O   O40       1.0  0.54931  0.35342000000000007  0.54092  1.0000
  Zn  Zn14      1.0  0.6409  0.67476  0.41676  1.0000
  C   C15       1.0  0.4862600000000003  0.8092599999999998  0.3164  1.0000
  C   C16       1.0  0.6930100000000002  0.6187199999999998  0.5623  1.0000
  H   H3        1.0  0.5054800000000002  0.3616799999999999  0.58959  1.0000
  H   H4        1.0  0.5667  0.56227  0.3493  1.0000
  C   C17       1.0  0.13646999999999998  0.25350999999999996  0.27083  1.0000
  C   C18       1.0  0.20219000000000004  0.32353999999999994  0.23504000000000003  1.0000
  N   N1        1.0  0.28594  0.35152  0.27043  1.0000
  C   C19       1.0  0.30162999999999995  0.3155999999999998  0.3418  1.0000
  C   C20       1.0  0.22627  0.2542  0.37911  1.0000
  N   N2        1.0  0.14725000000000002  0.22292999999999996  0.34272  1.0000
  N   N3        1.0  0.07225000000000004  0.20860999999999993  0.23139999999999997  1.0000
  N   N4        1.0  0.18948  0.3553099999999999  0.16337  1.0000
  H   H5        1.0  0.23756000000000005  0.22481999999999994  0.43519  1.0000
  C   C21       1.0  0.0703  0.23162  0.15739  1.0000
  C   C22       1.0  0.12138000000000003  0.31362999999999996  0.12477  1.0000
  H   H6        1.0  0.11793000000000001  0.33597  0.06708  1.0000
  C   C23       1.0  0.49446000000000023  0.9365899999999998  0.76002  1.0000
  C   C24       1.0  0.4822900000000001  0.9804  0.82663  1.0000
  N   N5        1.0  0.4260999999999999  0.9385899999999999  0.88663  1.0000
  C   C25       1.0  0.37662999999999996  0.85716  0.88243  1.0000
  C   C26       1.0  0.3936800000000001  0.81021  0.81665  1.0000
  N   N6        1.0  0.45218000000000025  0.85108  0.75665  1.0000
  N   N7        1.0  0.5403600000000001  0.9842299999999998  0.69841  1.0000
  N   N8        1.0  0.5197200000000002  0.06821999999999999  0.82942  1.0000
  H   H7        1.0  0.35555000000000014  0.7449299999999998  0.81233  1.0000
  C   C27       1.0  0.5760499999999998  0.07345  0.70093  1.0000
  C   C28       1.0  0.56828  0.11470999999999999  0.7682  1.0000
  H   H8        1.0  0.5948599999999999  0.18625000000000003  0.77103  1.0000
  C   C29       1.0  0.04399999999999998  0.98131  0.38118  1.0000
  C   C30       1.0  0.16448000000000002  0.9807599999999997  0.38003  1.0000
  N   N9        1.0  0.21918  0.94236  0.44100000000000006  1.0000
  C   C31       1.0  0.16527000000000003  0.8856299999999998  0.49427  1.0000
  C   C32       1.0  0.04318000000000004  0.9096899999999998  0.50374  1.0000
  N   N10       1.0  0.98401  0.95647  0.44594000000000006  1.0000
  N   N11       1.0  0.99857  0.9775299999999999  0.31732  1.0000
  N   N12       1.0  0.22883000000000006  0.9892099999999999  0.31456  1.0000
  H   H9        1.0  0.99663  0.87596  0.55093  1.0000
  C   C33       1.0  0.06912000000000011  0.9658799999999997  0.25379  1.0000
  C   C34       1.0  0.18430000000000005  0.9792999999999998  0.25149  1.0000
  H   H10       1.0  0.23925  0.9775  0.20062  1.0000
  C   C35       1.0  0.7302700000000001  0.26625  0.17642000000000002  1.0000
  C   C36       1.0  0.69962  0.33781999999999995  0.22805000000000003  1.0000
  N   N13       1.0  0.6770800000000002  0.3052199999999999  0.29959  1.0000
  C   C37       1.0  0.69724  0.20359999999999998  0.32176  1.0000
  C   C38       1.0  0.70426  0.13546999999999995  0.26892  1.0000
  N   N14       1.0  0.7255900000000001  0.16733  0.19714  1.0000
  N   N15       1.0  0.7767200000000001  0.29366  0.10865  1.0000
  N   N16       1.0  0.71156  0.43575  0.20828  1.0000
  H   H11       1.0  0.71165  0.054979999999999994  0.28532  1.0000
  C   C39       1.0  0.7899  0.3907999999999999  0.08836  1.0000
  C   C40       1.0  0.7551700000000001  0.4639299999999999  0.13897  1.0000
  H   H12       1.0  0.7625200000000001  0.54227  0.12344  1.0000
  C   C41       1.0  0.7512900000000002  0.7445  0.75279  1.0000
  C   C42       1.0  0.7863800000000004  0.7857499999999997  0.68273  1.0000
  N   N17       1.0  0.7695700000000001  0.74242  0.62253  1.0000
  C   C43       1.0  0.7199  0.65835  0.62938  1.0000
  C   C44       1.0  0.6899700000000001  0.6144099999999999  0.69995  1.0000
  N   N18       1.0  0.7050100000000001  0.6590299999999998  0.76016  1.0000
  N   N19       1.0  0.7587100000000001  0.79295  0.81261  1.0000
  N   N20       1.0  0.8322300000000002  0.87138  0.67529  1.0000
  H   H13       1.0  0.65655  0.54487  0.70693  1.0000
  C   C45       1.0  0.80179  0.88058  0.80531  1.0000
  C   C46       1.0  0.84176  0.9190299999999998  0.73514  1.0000
  H   H14       1.0  0.87443  0.98917  0.72785  1.0000
  C   C47       1.0  0.16107000000000005  0.22962999999999995  0.69508  1.0000
  C   C48       1.0  0.05830000000000005  0.3037699999999999  0.6907  1.0000
  N   N21       1.0  0.004659999999999993  0.32239  0.62808  1.0000
  C   C49       1.0  0.04318000000000003  0.26445  0.5714  1.0000
  C   C50       1.0  0.14211  0.18604  0.57735  1.0000
  N   N22       1.0  0.20146  0.17243999999999998  0.63813  1.0000
  N   N23       1.0  0.21539  0.21174  0.75781  1.0000
  N   N24       1.0  0.00766  0.34969  0.7510500000000001  1.0000
  H   H15       1.0  0.16676000000000005  0.13225  0.5363  1.0000
  C   C51       1.0  0.16734000000000013  0.26139  0.81764  1.0000
  C   C52       1.0  0.058040000000000036  0.3275599999999999  0.81502  1.0000
  H   H16       1.0  0.018039999999999987  0.36733000000000005  0.86174  1.0000
  C   C53       1.0  0.30285999999999996  0.5338800000000001  0.93176  1.0000
  C   C54       1.0  0.19288000000000005  0.5087399999999999  0.9302799999999999  1.0000
  N   N25       1.0  0.11412000000000004  0.52207  0.98944  1.0000
  C   C55       1.0  0.12516  0.58633  0.03837  1.0000
  C   C56       1.0  0.23876000000000003  0.59948  0.04631  1.0000
  N   N26       1.0  0.3258700000000001  0.5734399999999997  0.99213  1.0000
  N   N27       1.0  0.3759100000000001  0.5357399999999998  0.8689  1.0000
  N   N28       1.0  0.15732  0.4941400000000001  0.86566  1.0000
  H   H17       1.0  0.25334000000000007  0.64342  0.08883  1.0000
  C   C57       1.0  0.3404900000000001  0.51773  0.80442  1.0000
  C   C58       1.0  0.22854  0.49847  0.80281  1.0000
  H   H18       1.0  0.19813000000000003  0.48720999999999987  0.75158  1.0000
  C   C59       1.0  0.46244000000000013  0.051649999999999995  0.19889  1.0000
  C   C60       1.0  0.44812  0.02018  0.13107  1.0000
  N   N29       1.0  0.43773000000000006  0.08862  0.07155  1.0000
  C   C61       1.0  0.4530700000000001  0.18515  0.0748  1.0000
  C   C62       1.0  0.45739  0.2188  0.14381  1.0000
  N   N30       1.0  0.4613800000000001  0.15126  0.20463  1.0000
  N   N31       1.0  0.48124000000000006  0.9817899999999998  0.25756  1.0000
  N   N32       1.0  0.45345  0.9203099999999999  0.12425  1.0000
  H   H19       1.0  0.46523000000000003  0.29633  0.14833000000000002  1.0000
  C   C63       1.0  0.48411  0.8817  0.25111  1.0000
  C   C64       1.0  0.4709200000000001  0.85047  0.18293  1.0000
  H   H20       1.0  0.47239000000000003  0.7712699999999996  0.17711  1.0000
