data_image0
_chemical_formula_structural       Co3O10COC9H3C7HC3H2CH2C4H2C2HCH2C2HC4HC2HCH2C4HCH2C3H2C2HC3H2C3H3C10H2CHC7OCO7CoOCo4OCoO9C2O2C2CoOC8HCHCHCHCHC2HCHC2CoOCoHC10H2CH3C4H6C4H4C3HC10H2C3H3C3HCH2C12O8
_chemical_formula_sum              "Co12 O42 C144 H64"
_cell_length_a       12.03469
_cell_length_b       7.700119999999999
_cell_length_c       38.65497
_cell_angle_alpha    90.0
_cell_angle_beta     90.0
_cell_angle_gamma    90.07224

_symmetry_space_group_name_H-M    'P 1'
_symmetry_Int_Tables_number       1

loop_
  _symmetry_equiv_pos_as_xyz
  'x,y,z'

loop_
  _atom_site_type_symbol
  _atom_site_label
  _atom_site_symmetry_multiplicity
  _atom_site_fract_x
  _atom_site_fract_y
  _atom_site_fract_z
  _atom_site_occupancy
  Co  Co1       1.0  0.12999  0.77341  0.00579  1.0000
  Co  Co2       1.0  0.14908  0.13877  0.01588  1.0000
  Co  Co3       1.0  0.88607  0.18043  0.004899999999999999  1.0000
  O   O1        1.0  0.20589000000000002  0.94319  0.01887  1.0000
  O   O2        1.0  0.8048200000000001  0.00462  0.00287  1.0000
  O   O3        1.0  0.99927  0.9646000000000002  0.02411  1.0000
  O   O4        1.0  0.4002  0.0755  0.05886  1.0000
  O   O5        1.0  0.58756  0.8352400000000002  0.01802  1.0000
  O   O6        1.0  0.20853  0.5979200000000002  0.03765  1.0000
  O   O7        1.0  0.77698  0.32347000000000004  0.03435  1.0000
  O   O8        1.0  0.24781  0.24872  0.053559999999999997  1.0000
  O   O9        1.0  0.7418100000000001  0.6656500000000002  0.015010000000000003  1.0000
  O   O10       1.0  0.3815  0.70965  0.04703  1.0000
  C   C1        1.0  0.66075  0.7339600000000002  0.03309  1.0000
  O   O11       1.0  0.60586  0.20163  0.02723  1.0000
  C   C2        1.0  0.31456  0.15483  0.07272  1.0000
  C   C3        1.0  0.28779  0.6462200000000002  0.059  1.0000
  C   C4        1.0  0.68668  0.25441  0.04749  1.0000
  C   C5        1.0  0.29497  0.14230000000000007  0.1091  1.0000
  C   C6        1.0  0.65984  0.7136400000000003  0.07008  1.0000
  C   C7        1.0  0.27159  0.63054  0.09566  1.0000
  C   C8        1.0  0.67897  0.2299  0.08409  1.0000
  C   C9        1.0  0.27497  0.12904  0.13946999999999998  1.0000
  C   C10       1.0  0.66434  0.6991200000000002  0.10115  1.0000
  H   H1        1.0  0.08811  0.22988  0.17185  1.0000
  H   H2        1.0  0.51967  0.2700700000000001  0.16168  1.0000
  H   H3        1.0  0.51194  0.79074  0.14866  1.0000
  C   C11       1.0  0.67917  0.20699  0.11486999999999999  1.0000
  C   C12       1.0  0.2569  0.6235100000000002  0.12649  1.0000
  C   C13       1.0  0.15026  0.17557  0.189  1.0000
  C   C14       1.0  0.25096  0.11332000000000003  0.17569  1.0000
  C   C15       1.0  0.58721  0.7373900000000002  0.15975  1.0000
  C   C16       1.0  0.59646  0.22366  0.17287  1.0000
  C   C17       1.0  0.6731  0.6795300000000002  0.13819  1.0000
  H   H4        1.0  0.07947  0.7466  0.16089  1.0000
  C   C18       1.0  0.6851000000000002  0.17642  0.15147  1.0000
  C   C19       1.0  0.23817  0.61609  0.16327  1.0000
  C   C20       1.0  0.14153  0.68807  0.17751  1.0000
  H   H5        1.0  0.53948  0.25507  0.22518  1.0000
  H   H6        1.0  0.05593000000000001  0.23005000000000006  0.23491999999999996  1.0000
  C   C21       1.0  0.1316  0.17450000000000004  0.22469999999999998  1.0000
  H   H7        1.0  0.53318  0.77758  0.21219999999999997  1.0000
  H   H8        1.0  0.39367  0.48873  0.17416  1.0000
  C   C22       1.0  0.60757  0.21394000000000005  0.20882  1.0000
  C   C23       1.0  0.59916  0.72959  0.19574  1.0000
  C   C24       1.0  0.77026  0.61078  0.15278  1.0000
  C   C25       1.0  0.33023  0.04201000000000001  0.19791  1.0000
  H   H9        1.0  0.8368300000000001  0.5649300000000003  0.13627  1.0000
  H   H10       1.0  0.40695  0.99046  0.18765  1.0000
  C   C26       1.0  0.31857  0.5431200000000003  0.18497  1.0000
  C   C27       1.0  0.78327  0.11183  0.16599  1.0000
  H   H11       1.0  0.85179  0.07328  0.1495  1.0000
  C   C28       1.0  0.12642  0.68984  0.21339  1.0000
  H   H12       1.0  0.05401  0.75285  0.22421  1.0000
  H   H13       1.0  0.55426  0.5313200000000002  0.25839  1.0000
  C   C29       1.0  0.2135  0.11058000000000001  0.24718  1.0000
  C   C30       1.0  0.69693  0.6625300000000002  0.21043999999999996  1.0000
  H   H14       1.0  0.02625  0.52581  0.27382  1.0000
  C   C31       1.0  0.78187  0.6010500000000002  0.18874  1.0000
  C   C32       1.0  0.31214  0.04159  0.23350999999999997  1.0000
  C   C33       1.0  0.70753  0.15533  0.22353  1.0000
  C   C34       1.0  0.30224  0.54017  0.22074  1.0000
  H   H15       1.0  0.35518  0.27301  0.29081  1.0000
  C   C35       1.0  0.79455  0.1011  0.20185  1.0000
  C   C36       1.0  0.20687  0.6161  0.23525  1.0000
  H   H16       1.0  0.36363  0.4790500000000001  0.23716999999999996  1.0000
  C   C37       1.0  0.62803  0.58801  0.26974  1.0000
  H   H17       1.0  0.85676  0.54579  0.19972  1.0000
  H   H18       1.0  0.37603000000000003  0.99223  0.25056  1.0000
  C   C38       1.0  0.28471  0.21502  0.30392  1.0000
  C   C39       1.0  0.09448000000000001  0.57487  0.28925  1.0000
  C   C40       1.0  0.71108  0.6596200000000001  0.24853  1.0000
  C   C41       1.0  0.7235  0.15951000000000007  0.26145  1.0000
  H   H19       1.0  0.8790300000000001  0.29965000000000014  0.25887  1.0000
  C   C42       1.0  0.20122  0.13092000000000006  0.28492  1.0000
  H   H20       1.0  0.57041  0.02383  0.27309  1.0000
  H   H21       1.0  0.87165  0.05396  0.21279  1.0000
  C   C43       1.0  0.19428  0.6263300000000003  0.27332  1.0000
  C   C44       1.0  0.81919  0.23643000000000006  0.27554  1.0000
  C   C45       1.0  0.64365  0.08631  0.28361  1.0000
  H   H22       1.0  0.57635  0.53141  0.32179  1.0000
  H   H23       1.0  0.0067800000000000004  0.5434400000000003  0.33744  1.0000
  C   C46       1.0  0.6405  0.58839  0.30569  1.0000
  C   C47       1.0  0.08361  0.5835500000000002  0.32529  1.0000
  H   H24       1.0  0.34422  0.28583  0.35429  1.0000
  C   C48       1.0  0.27839  0.22258  0.33986  1.0000
  C   C49       1.0  0.10901  0.059900000000000016  0.30223  1.0000
  C   C50       1.0  0.8064400000000002  0.7323  0.26379  1.0000
  H   H25       1.0  0.04416  0.9944300000000003  0.2878  1.0000
  H   H26       1.0  0.87023  0.79041  0.24785  1.0000
  C   C51       1.0  0.8361  0.23646  0.31126  1.0000
  C   C52       1.0  0.65916  0.09161  0.31945  1.0000
  C   C53       1.0  0.28271  0.68625  0.29383  1.0000
  H   H27       1.0  0.91015  0.29558  0.32181  1.0000
  H   H28       1.0  0.36056  0.72438  0.28201  1.0000
  H   H29       1.0  0.59619  0.03776  0.33639  1.0000
  C   C54       1.0  0.73559  0.66137  0.32078  1.0000
  C   C55       1.0  0.7557100000000001  0.16621000000000005  0.33333  1.0000
  C   C56       1.0  0.18811  0.14795  0.35722  1.0000
  C   C57       1.0  0.17262  0.6408700000000003  0.34557  1.0000
  C   C58       1.0  0.8178900000000001  0.73494  0.29979  1.0000
  C   C59       1.0  0.10246  0.06864000000000003  0.33838  1.0000
  C   C60       1.0  0.27166  0.69402  0.32972  1.0000
  C   C61       1.0  0.74785  0.66128  0.35786  1.0000
  C   C62       1.0  0.76591  0.18904  0.37012  1.0000
  C   C63       1.0  0.16886  0.6239900000000002  0.3826  1.0000
  H   H30       1.0  0.03227  0.01079  0.35166  1.0000
  H   H31       1.0  0.8894700000000001  0.7974900000000001  0.31133  1.0000
  C   C64       1.0  0.18739  0.14763  0.3944  1.0000
  H   H32       1.0  0.34117  0.7376500000000002  0.3453  1.0000
  C   C65       1.0  0.75334  0.65728  0.389  1.0000
  C   C66       1.0  0.17693000000000003  0.61416  0.41359  1.0000
  C   C67       1.0  0.7719  0.20623  0.40104  1.0000
  C   C68       1.0  0.19874  0.15722  0.42527999999999994  1.0000
  C   C69       1.0  0.20534  0.59754  0.44941  1.0000
  C   C70       1.0  0.7521100000000001  0.64621  0.42606999999999995  1.0000
  C   C71       1.0  0.76902  0.23461000000000007  0.43767999999999996  1.0000
  O   O12       1.0  0.12682  0.58271  0.47312999999999994  1.0000
  C   C72       1.0  0.22750000000000004  0.1798  0.46094  1.0000
  O   O13       1.0  0.31094  0.58642  0.45746  1.0000
  O   O14       1.0  0.84628  0.6537100000000002  0.44351  1.0000
  O   O15       1.0  0.65621  0.62556  0.44189  1.0000
  O   O16       1.0  0.33316000000000007  0.19645000000000007  0.46902  1.0000
  O   O17       1.0  0.6719300000000001  0.23709000000000002  0.4533  1.0000
  O   O18       1.0  0.14898  0.19774  0.4843799999999999  1.0000
  O   O19       1.0  0.8619  0.26684  0.45474  1.0000
  Co  Co4       1.0  0.13835  0.4161700000000001  0.51607  1.0000
  O   O20       1.0  0.49491000000000007  0.78905  0.49428  1.0000
  Co  Co5       1.0  0.3714  0.6241700000000002  0.50629  1.0000
  Co  Co6       1.0  0.8837200000000001  0.4896100000000001  0.48531  1.0000
  Co  Co7       1.0  0.63561  0.6499  0.4946  1.0000
  Co  Co8       1.0  0.65343  0.28605  0.50497  1.0000
  O   O21       1.0  0.53055  0.11895000000000003  0.51635  1.0000
  Co  Co9       1.0  0.39058000000000004  0.25966  0.51739  1.0000
  O   O22       1.0  0.31443  0.4394000000000001  0.5202  1.0000
  O   O23       1.0  0.71571  0.47991  0.50267  1.0000
  O   O24       1.0  0.52058  0.4705700000000001  0.52463  1.0000
  O   O25       1.0  0.11872  0.62541  0.54958  1.0000
  O   O26       1.0  0.91352  0.7042  0.51639  1.0000
  O   O27       1.0  0.77857  0.17  0.53259  1.0000
  O   O28       1.0  0.30784  0.13172  0.55653  1.0000
  O   O29       1.0  0.27346  0.7830700000000003  0.53632  1.0000
  O   O30       1.0  0.7419  0.8282600000000002  0.51631  1.0000
  C   C73       1.0  0.20427  0.7194  0.55936  1.0000
  C   C74       1.0  0.8317900000000001  0.78006  0.533  1.0000
  O   O31       1.0  0.93206  0.3402900000000001  0.52748  1.0000
  O   O32       1.0  0.13676  0.2576  0.55975  1.0000
  C   C75       1.0  0.85813  0.2609200000000001  0.54683  1.0000
  C   C76       1.0  0.22958000000000006  0.20793  0.57461  1.0000
  Co  Co10      1.0  0.38216000000000006  0.9248500000000002  0.01451  1.0000
  O   O33       1.0  0.02604  0.3136100000000001  0.01497  1.0000
  C   C77       1.0  0.83604  0.79634  0.57003  1.0000
  C   C78       1.0  0.22556  0.74468  0.59554  1.0000
  C   C79       1.0  0.85946  0.28204  0.58361  1.0000
  C   C80       1.0  0.24274000000000007  0.22625  0.61118  1.0000
  C   C81       1.0  0.83451  0.80559  0.6011999999999998  1.0000
  C   C82       1.0  0.24433  0.7589200000000003  0.62605  1.0000
  C   C83       1.0  0.85296  0.29907  0.6145  1.0000
  C   C84       1.0  0.25735  0.24527  0.64172  1.0000
  H   H33       1.0  0.66577  0.68887  0.6401  1.0000
  C   C85       1.0  0.827  0.8123500000000002  0.63843  1.0000
  H   H34       1.0  0.9867  0.9364300000000002  0.64536  1.0000
  C   C86       1.0  0.83999  0.31651  0.65129  1.0000
  H   H35       1.0  0.67071  0.22254  0.65145  1.0000
  C   C87       1.0  0.73228  0.747  0.65506  1.0000
  H   H36       1.0  0.006360000000000001  0.4116400000000001  0.65944  1.0000
  C   C88       1.0  0.91323  0.8853900000000002  0.65802  1.0000
  H   H37       1.0  0.42474  0.8961200000000002  0.65718  1.0000
  C   C89       1.0  0.26393  0.7736600000000002  0.6626799999999999  1.0000
  C   C90       1.0  0.73918  0.27054  0.66697  1.0000
  H   H38       1.0  0.43957  0.38189  0.67137  1.0000
  C   C91       1.0  0.92795  0.37832  0.67145  1.0000
  H   H39       1.0  0.10859  0.65301  0.6766  1.0000
  C   C92       1.0  0.27638  0.26906  0.6780699999999998  1.0000
  C   C93       1.0  0.36323  0.84609  0.67508  1.0000
  Co  Co11      1.0  0.86637  0.8165200000000002  0.9945999999999999  1.0000
  O   O34       1.0  0.98986  0.6423000000000002  0.9948199999999999  1.0000
  Co  Co12      1.0  0.63763  0.03695  0.98589  1.0000
  H   H40       1.0  0.11865  0.15925000000000006  0.693  1.0000
  C   C94       1.0  0.19535  0.21777000000000005  0.70186  1.0000
  C   C95       1.0  0.37667  0.34104  0.68972  1.0000
  C   C96       1.0  0.18529  0.7088  0.68598  1.0000
  C   C97       1.0  0.90401  0.8951000000000002  0.6941  1.0000
  C   C98       1.0  0.38222  0.85751  0.71075  1.0000
  C   C99       1.0  0.72714  0.28318  0.70282  1.0000
  C   C100      1.0  0.9157500000000001  0.3932600000000001  0.7072799999999999  1.0000
  C   C101      1.0  0.21365000000000003  0.23965  0.7372  1.0000
  C   C102      1.0  0.72333  0.7552100000000003  0.69106  1.0000
  C   C103      1.0  0.396  0.36034  0.72517  1.0000
  H   H41       1.0  0.9701600000000001  0.95419  0.70902  1.0000
  H   H42       1.0  0.45688000000000006  0.9201900000000001  0.72015  1.0000
  C   C104      1.0  0.20564000000000002  0.7146800000000002  0.72148  1.0000
  H   H43       1.0  0.64975  0.24371  0.71476  1.0000
  H   H44       1.0  0.14965  0.20221000000000006  0.75533  1.0000
  H   H45       1.0  0.9843500000000002  0.44135  0.72269  1.0000
  C   C105      1.0  0.8159  0.3425800000000001  0.72325  1.0000
  C   C106      1.0  0.80878  0.83044  0.7107899999999999  1.0000
  C   C107      1.0  0.30317  0.79219  0.73415  1.0000
  C   C108      1.0  0.31489  0.30801  0.74913  1.0000
  H   H46       1.0  0.47326  0.41728  0.7339799999999999  1.0000
  H   H47       1.0  0.65039  0.70198  0.70365  1.0000
  H   H48       1.0  0.14569  0.65896  0.7391699999999999  1.0000
  H   H49       1.0  0.15663  0.9234300000000002  0.7804399999999999  1.0000
  H   H50       1.0  0.9567  0.19124  0.7688799999999999  1.0000
  H   H51       1.0  0.95683  0.72161  0.75936  1.0000
  C   C109      1.0  0.80691  0.3412100000000001  0.7614  1.0000
  C   C110      1.0  0.7980600000000001  0.8420500000000002  0.74889  1.0000
  C   C111      1.0  0.31928  0.81222  0.77188  1.0000
  C   C112      1.0  0.33612000000000003  0.32174  0.78668  1.0000
  H   H52       1.0  0.18284000000000003  0.4575400000000001  0.79761  1.0000
  H   H53       1.0  0.49457000000000007  0.18997000000000006  0.78463  1.0000
  H   H54       1.0  0.63721  0.9668300000000002  0.74753  1.0000
  H   H55       1.0  0.6535  0.48733  0.76289  1.0000
  C   C113      1.0  0.23308  0.87966  0.79232  1.0000
  C   C114      1.0  0.8885000000000001  0.25798  0.78133  1.0000
  C   C115      1.0  0.88229  0.77691  0.77044  1.0000
  H   H56       1.0  0.48335  0.6973500000000002  0.77248  1.0000
  C   C116      1.0  0.43201000000000006  0.24741000000000005  0.80117  1.0000
  C   C117      1.0  0.7017  0.9128100000000001  0.76377  1.0000
  C   C118      1.0  0.25582  0.3958300000000001  0.80846  1.0000
  C   C119      1.0  0.71589  0.41985000000000006  0.77791  1.0000
  C   C120      1.0  0.41671  0.75147  0.78789  1.0000
  C   C121      1.0  0.24292  0.8827300000000002  0.8282100000000001  1.0000
  C   C122      1.0  0.8798800000000001  0.25497  0.81733  1.0000
  C   C123      1.0  0.86878  0.7784000000000002  0.8063899999999999  1.0000
  C   C124      1.0  0.44446  0.23941  0.83715  1.0000
  C   C125      1.0  0.68862  0.91448  0.79968  1.0000
  H   H57       1.0  0.17485  0.9320900000000002  0.84371  1.0000
  H   H58       1.0  0.9428600000000001  0.18892000000000003  0.83244  1.0000
  C   C126      1.0  0.26786  0.38597  0.8443  1.0000
  C   C127      1.0  0.70645  0.4139200000000001  0.8139599999999999  1.0000
  C   C128      1.0  0.4255  0.7519400000000003  0.82404  1.0000
  H   H59       1.0  0.9337300000000001  0.7263200000000002  0.82279  1.0000
  H   H60       1.0  0.51644  0.17572000000000004  0.8481699999999999  1.0000
  H   H61       1.0  0.615  0.9715000000000003  0.81089  1.0000
  C   C129      1.0  0.77098  0.8445  0.8210299999999999  1.0000
  C   C130      1.0  0.78815  0.3307400000000001  0.8337  1.0000
  C   C131      1.0  0.33759  0.81449  0.84422  1.0000
  H   H62       1.0  0.20301  0.43706  0.86086  1.0000
  C   C132      1.0  0.36089  0.30432  0.85876  1.0000
  H   H63       1.0  0.63622  0.4748700000000001  0.8265  1.0000
  H   H64       1.0  0.49888  0.69894  0.83629  1.0000
  C   C133      1.0  0.7578  0.84801  0.85807  1.0000
  C   C134      1.0  0.7758  0.31478  0.87059  1.0000
  C   C135      1.0  0.3376  0.7915600000000003  0.8811199999999999  1.0000
  C   C136      1.0  0.3594800000000001  0.2598800000000001  0.89486  1.0000
  C   C137      1.0  0.75051  0.84834  0.8891899999999999  1.0000
  C   C138      1.0  0.77139  0.2957500000000001  0.9014999999999999  1.0000
  C   C139      1.0  0.326  0.77959  0.9119599999999999  1.0000
  C   C140      1.0  0.34808  0.22849000000000005  0.9251600000000001  1.0000
  C   C141      1.0  0.75246  0.8528700000000002  0.92631  1.0000
  C   C142      1.0  0.77329  0.2629300000000001  0.9379999999999998  1.0000
  C   C143      1.0  0.29658  0.77314  0.9478299999999998  1.0000
  C   C144      1.0  0.31678  0.18621  0.95988  1.0000
  O   O35       1.0  0.84921  0.8468000000000002  0.94205  1.0000
  O   O36       1.0  0.8695700000000002  0.23476  0.9531799999999999  1.0000
  O   O37       1.0  0.19084  0.7840300000000002  0.9561299999999999  1.0000
  O   O38       1.0  0.21032000000000003  0.17859000000000005  0.96724  1.0000
  O   O39       1.0  0.65869  0.8658100000000002  0.9439499999999998  1.0000
  O   O40       1.0  0.67916  0.25191  0.95529  1.0000
  O   O41       1.0  0.37442  0.76029  0.9716200000000002  1.0000
  O   O42       1.0  0.39315  0.14547000000000004  0.9830099999999999  1.0000
