data_image0
_chemical_formula_structural       C3HCHC4HCHCHCHC6HCHC3HCHC4HCHCHCHC2HCHO14Mg3HCHC4HCHC4HCHCHCHC6HCHC3HCHC4HCHCHCHC2HCHO14Mg3HCHC4HCHC4HCHCHCHC6HCHC3HCHC4HCHCHCHC2HCHO14Mg3HCHC4HCHC4HCHCHCHC6HCHC3HCHC4HCHCHCHC2HCHO14Mg3HCHC
_chemical_formula_sum              "C136 H72 O56 Mg12"
_cell_length_a       11.3593
_cell_length_b       22.5823
_cell_length_c       16.5923
_cell_angle_alpha    90.0
_cell_angle_beta     92.129
_cell_angle_gamma    90.0

_space_group_name_H-M_alt    "P 1"
_space_group_IT_number       1

loop_
  _space_group_symop_operation_xyz
  'x, y, z'

loop_
  _atom_site_type_symbol
  _atom_site_label
  _atom_site_symmetry_multiplicity
  _atom_site_fract_x
  _atom_site_fract_y
  _atom_site_fract_z
  _atom_site_occupancy
  C   C1        1.0  0.414  0.11690000000000002  0.5151  1.0000
  C   C2        1.0  0.4206  0.05970000000000002  0.5647  1.0000
  C   C3        1.0  0.35380000000000006  0.013500000000000002  0.5384  1.0000
  H   H1        1.0  0.3087  0.017600000000000005  0.4894  1.0000
  C   C4        1.0  0.3487  0.9601  0.5804000000000002  1.0000
  H   H2        1.0  0.2986  0.9292  0.5608  1.0000
  C   C5        1.0  0.41490000000000005  0.9521000000000001  0.6493  1.0000
  C   C6        1.0  0.4893  0.9992  0.6807  1.0000
  C   C7        1.0  0.4925  0.0539  0.6375  1.0000
  C   C8        1.0  0.5674  0.09890000000000003  0.6704  1.0000
  H   H3        1.0  0.5738  0.1351  0.6418  1.0000
  C   C9        1.0  0.6291  0.0924  0.7399000000000002  1.0000
  H   H4        1.0  0.6773  0.12390000000000002  0.7599  1.0000
  C   C10       1.0  0.623  0.0386  0.784  1.0000
  H   H5        1.0  0.6661  0.03400000000000001  0.8337  1.0000
  C   C11       1.0  0.554  0.9935000000000002  0.7537  1.0000
  H   H6        1.0  0.5501  0.9574  0.7829  1.0000
  C   C12       1.0  0.4118  0.894  0.6923000000000001  1.0000
  C   C13       1.0  0.5285  0.3793000000000001  0.5606000000000002  1.0000
  C   C14       1.0  0.4028999999999999  0.4631  0.5075  1.0000
  C   C15       1.0  0.5139  0.4421000000000001  0.5291  1.0000
  C   C16       1.0  0.6109  0.4777  0.5233  1.0000
  C   C17       1.0  0.7324  0.45710000000000006  0.5419  1.0000
  H   H7        1.0  0.7422000000000001  0.41820000000000007  0.5629  1.0000
  C   C18       1.0  0.8360000000000001  0.4915000000000001  0.5305  1.0000
  H   H8        1.0  0.9102  0.4751000000000001  0.5476  1.0000
  C   C19       1.0  0.2086  0.23840000000000003  0.4777  1.0000
  C   C20       1.0  0.08610000000000002  0.2402  0.5095  1.0000
  C   C21       1.0  0.0313  0.292  0.5207  1.0000
  H   H9        1.0  0.0732  0.32760000000000006  0.5113  1.0000
  C   C22       1.0  0.9149  0.2961  0.5454000000000002  1.0000
  H   H10       1.0  0.879  0.3337  0.5516  1.0000
  C   C23       1.0  0.8529999999999999  0.24520000000000003  0.5608  1.0000
  C   C24       1.0  0.9064  0.1893  0.5523  1.0000
  C   C25       1.0  0.025400000000000006  0.18610000000000004  0.5264000000000002  1.0000
  C   C26       1.0  0.0804  0.1298  0.5194  1.0000
  H   H11       1.0  0.15849999999999997  0.1272  0.5012  1.0000
  C   C27       1.0  0.020900000000000005  0.07930000000000001  0.5388  1.0000
  H   H12       1.0  0.05820000000000002  0.0419  0.5340000000000003  1.0000
  C   C28       1.0  0.9042  0.0823  0.5659  1.0000
  H   H13       1.0  0.8646  0.04710000000000001  0.5805  1.0000
  C   C29       1.0  0.8486000000000001  0.1355  0.5712  1.0000
  H   H14       1.0  0.7695  0.13660000000000003  0.5878  1.0000
  C   C30       1.0  0.7301  0.2506  0.5911  1.0000
  C   C31       1.0  0.562  0.2622  0.3728  1.0000
  H   H15       1.0  0.5984  0.2937  0.4024  1.0000
  C   C32       1.0  0.3556  0.2492  0.695  1.0000
  H   H16       1.0  0.30490000000000006  0.22140000000000004  0.6682000000000002  1.0000
  O   O1        1.0  0.4334  0.1642  0.5522  1.0000
  O   O2        1.0  0.3845  0.11240000000000003  0.4429  1.0000
  O   O3        1.0  0.508  0.8662  0.7101  1.0000
  O   O4        1.0  0.3149  0.8733000000000001  0.7135  1.0000
  O   O5        1.0  0.5781  0.3732000000000001  0.6278  1.0000
  O   O6        1.0  0.4865  0.3392  0.5164  1.0000
  O   O7        1.0  0.2857  0.2665  0.5178  1.0000
  O   O8        1.0  0.2224  0.2111  0.4142  1.0000
  O   O9        1.0  0.7243  0.26930000000000004  0.6625  1.0000
  O   O10       1.0  0.6453  0.23760000000000006  0.5455  1.0000
  O   O11       1.0  0.48270000000000013  0.23480000000000006  0.4077000000000001  1.0000
  O   O12       1.0  0.5992  0.25320000000000004  0.3039  1.0000
  O   O13       1.0  0.44710000000000005  0.265  0.6583  1.0000
  O   O14       1.0  0.3271  0.2664000000000001  0.7611  1.0000
  Mg  Mg1       1.0  0.4641  0.25056000000000006  0.53215  1.0000
  Mg  Mg2       1.0  0.5857  0.30844  0.7140700000000002  1.0000
  Mg  Mg3       1.0  0.3602  0.17429000000000003  0.35431  1.0000
  H   H17       1.0  0.2975  0.3912000000000001  0.5372  1.0000
  C   C33       1.0  0.2884  0.43080000000000007  0.5187  1.0000
  H   H18       1.0  0.09660000000000003  0.42760000000000004  0.5192000000000002  1.0000
  C   C34       1.0  0.1642  0.44990000000000013  0.5059  1.0000
  C   C35       1.0  0.586  0.6169  0.9849000000000001  1.0000
  C   C36       1.0  0.5794  0.5597  0.9353000000000002  1.0000
  C   C37       1.0  0.6462  0.5135000000000001  0.9616  1.0000
  H   H19       1.0  0.6913  0.5176000000000001  0.0106  1.0000
  C   C38       1.0  0.6513  0.4601000000000001  0.9196  1.0000
  H   H20       1.0  0.7014000000000002  0.42920000000000014  0.9392  1.0000
  C   C39       1.0  0.5851  0.4521  0.8507  1.0000
  C   C40       1.0  0.5107  0.4992000000000001  0.8193000000000003  1.0000
  C   C41       1.0  0.5075  0.5539000000000001  0.8625  1.0000
  C   C42       1.0  0.4326  0.5989000000000001  0.8296  1.0000
  H   H21       1.0  0.4262  0.6351  0.8582  1.0000
  C   C43       1.0  0.37089999999999995  0.5924000000000001  0.7601  1.0000
  H   H22       1.0  0.3227  0.6239  0.7401  1.0000
  C   C44       1.0  0.37700000000000006  0.5386000000000001  0.716  1.0000
  H   H23       1.0  0.3339  0.5340000000000001  0.6663  1.0000
  C   C45       1.0  0.4460000000000001  0.4935  0.7463000000000002  1.0000
  H   H24       1.0  0.4499000000000001  0.4574000000000001  0.7171000000000002  1.0000
  C   C46       1.0  0.5882000000000001  0.394  0.8077  1.0000
  C   C47       1.0  0.4715  0.8793000000000002  0.9394  1.0000
  C   C48       1.0  0.5971  0.9631  0.9925000000000002  1.0000
  C   C49       1.0  0.48610000000000003  0.9421000000000003  0.9709  1.0000
  C   C50       1.0  0.38909999999999995  0.9777  0.9767000000000001  1.0000
  C   C51       1.0  0.2676  0.9571000000000002  0.9581000000000002  1.0000
  H   H25       1.0  0.2578  0.9182000000000002  0.9371  1.0000
  C   C52       1.0  0.16400000000000003  0.9915  0.9695000000000001  1.0000
  H   H26       1.0  0.0898  0.9751000000000002  0.9524  1.0000
  C   C53       1.0  0.7914  0.7384000000000001  0.0223  1.0000
  C   C54       1.0  0.9138999999999999  0.7402  0.9905  1.0000
  C   C55       1.0  0.9686999999999999  0.792  0.9793  1.0000
  H   H27       1.0  0.9268  0.8276000000000001  0.9887  1.0000
  C   C56       1.0  0.0851  0.7961000000000003  0.9546  1.0000
  H   H28       1.0  0.121  0.8337  0.9484000000000002  1.0000
  C   C57       1.0  0.147  0.7452  0.9392  1.0000
  C   C58       1.0  0.09359999999999999  0.6893000000000001  0.9477  1.0000
  C   C59       1.0  0.9746  0.6861000000000002  0.9736000000000001  1.0000
  C   C60       1.0  0.9196000000000002  0.6298  0.9806000000000001  1.0000
  H   H29       1.0  0.8415  0.6272000000000001  0.9988  1.0000
  C   C61       1.0  0.9791  0.5793000000000001  0.9612  1.0000
  H   H30       1.0  0.9418  0.5419  0.9660000000000001  1.0000
  C   C62       1.0  0.09579999999999998  0.5823  0.9341000000000003  1.0000
  H   H31       1.0  0.1354  0.5471  0.9195  1.0000
  C   C63       1.0  0.1514  0.6355  0.9288  1.0000
  H   H32       1.0  0.2305  0.6366  0.9122  1.0000
  C   C64       1.0  0.2699  0.7506  0.9089  1.0000
  C   C65       1.0  0.438  0.7622  0.1272  1.0000
  H   H33       1.0  0.4016  0.7937  0.09760000000000003  1.0000
  C   C66       1.0  0.6444  0.7492000000000001  0.805  1.0000
  H   H34       1.0  0.6951  0.7214  0.8318  1.0000
  O   O15       1.0  0.5666  0.6642000000000001  0.9478  1.0000
  O   O16       1.0  0.6155  0.6124000000000002  0.0571  1.0000
  O   O17       1.0  0.49200000000000005  0.36620000000000014  0.7899  1.0000
  O   O18       1.0  0.6851  0.3733  0.7865  1.0000
  O   O19       1.0  0.42190000000000005  0.8732  0.8722  1.0000
  O   O20       1.0  0.5135  0.8392000000000001  0.9836000000000001  1.0000
  O   O21       1.0  0.7143  0.7665  0.9822000000000001  1.0000
  O   O22       1.0  0.7776  0.7111  0.0858  1.0000
  O   O23       1.0  0.2757  0.7693000000000002  0.8375  1.0000
  O   O24       1.0  0.35469999999999996  0.7376000000000001  0.9545  1.0000
  O   O25       1.0  0.5173  0.7348000000000002  0.0923  1.0000
  O   O26       1.0  0.4008  0.7532000000000002  0.1961  1.0000
  O   O27       1.0  0.5529  0.765  0.8417000000000001  1.0000
  O   O28       1.0  0.6729  0.7664  0.7389  1.0000
  Mg  Mg4       1.0  0.5359000000000002  0.75056  0.96785  1.0000
  Mg  Mg5       1.0  0.4143  0.80844  0.78593  1.0000
  Mg  Mg6       1.0  0.6398  0.67429  0.14569  1.0000
  H   H35       1.0  0.7025  0.8912  0.9628000000000002  1.0000
  C   C67       1.0  0.7115999999999999  0.9308000000000002  0.9813  1.0000
  H   H36       1.0  0.9034000000000001  0.9276  0.9808000000000001  1.0000
  C   C68       1.0  0.8358  0.9499  0.9941  1.0000
  C   C69       1.0  0.586  0.8831000000000001  0.4849  1.0000
  C   C70       1.0  0.5794  0.9403  0.4353  1.0000
  C   C71       1.0  0.6462  0.9865  0.4616  1.0000
  H   H37       1.0  0.6913  0.9824000000000002  0.5106  1.0000
  C   C72       1.0  0.6513  0.0399  0.4196  1.0000
  H   H38       1.0  0.7014  0.07080000000000002  0.4392000000000001  1.0000
  C   C73       1.0  0.5851  0.0479  0.3507  1.0000
  C   C74       1.0  0.5107  0.0008  0.3193  1.0000
  C   C75       1.0  0.5075  0.9461000000000003  0.3625  1.0000
  C   C76       1.0  0.4326  0.9011000000000001  0.3296  1.0000
  H   H39       1.0  0.4262  0.8649  0.3582  1.0000
  C   C77       1.0  0.37089999999999995  0.9076  0.2601  1.0000
  H   H40       1.0  0.3227  0.8761  0.2401  1.0000
  C   C78       1.0  0.37700000000000006  0.9614000000000001  0.21600000000000005  1.0000
  H   H41       1.0  0.3339  0.966  0.16630000000000006  1.0000
  C   C79       1.0  0.44600000000000006  0.0065000000000000014  0.2463  1.0000
  H   H42       1.0  0.4499000000000001  0.0426  0.2171  1.0000
  C   C80       1.0  0.5882  0.10600000000000001  0.3077  1.0000
  C   C81       1.0  0.4715  0.6207  0.4394000000000001  1.0000
  C   C82       1.0  0.5971  0.5369  0.49250000000000005  1.0000
  C   C83       1.0  0.48610000000000003  0.5579  0.4709  1.0000
  C   C84       1.0  0.38909999999999995  0.5223000000000001  0.4767000000000001  1.0000
  C   C85       1.0  0.2676  0.5429  0.4581  1.0000
  H   H43       1.0  0.2578  0.5818  0.43710000000000004  1.0000
  C   C86       1.0  0.164  0.5085  0.4695  1.0000
  H   H44       1.0  0.0898  0.5249  0.4524  1.0000
  C   C87       1.0  0.7914  0.7616000000000003  0.5223  1.0000
  C   C88       1.0  0.9138999999999999  0.7598  0.4905  1.0000
  C   C89       1.0  0.9686999999999999  0.708  0.47930000000000006  1.0000
  H   H45       1.0  0.9268  0.6724000000000001  0.4887  1.0000
  C   C90       1.0  0.0851  0.7039  0.4546000000000001  1.0000
  H   H46       1.0  0.121  0.6663  0.4484  1.0000
  C   C91       1.0  0.147  0.7548  0.4392000000000001  1.0000
  C   C92       1.0  0.09359999999999999  0.8107  0.4477  1.0000
  C   C93       1.0  0.9746  0.8139000000000001  0.4736000000000001  1.0000
  C   C94       1.0  0.9196000000000001  0.8702  0.4806  1.0000
  H   H47       1.0  0.8415  0.8728000000000001  0.4988  1.0000
  C   C95       1.0  0.9791  0.9207  0.4612  1.0000
  H   H48       1.0  0.9418  0.9581000000000002  0.4660000000000001  1.0000
  C   C96       1.0  0.09579999999999998  0.9177000000000002  0.4341000000000001  1.0000
  H   H49       1.0  0.1354  0.9529  0.4195  1.0000
  C   C97       1.0  0.1514  0.8645  0.4288000000000001  1.0000
  H   H50       1.0  0.2305  0.8634  0.4122  1.0000
  C   C98       1.0  0.2699  0.7494  0.4089  1.0000
  C   C99       1.0  0.438  0.7378  0.6272  1.0000
  H   H51       1.0  0.4016  0.7063000000000001  0.5976  1.0000
  C   C100      1.0  0.6444  0.7508000000000002  0.3050000000000001  1.0000
  H   H52       1.0  0.6951  0.7786  0.3318000000000001  1.0000
  O   O29       1.0  0.5666  0.8358000000000001  0.4478000000000001  1.0000
  O   O30       1.0  0.6155  0.8876  0.5571  1.0000
  O   O31       1.0  0.49200000000000005  0.13380000000000003  0.2899  1.0000
  O   O32       1.0  0.6851  0.1267  0.2865  1.0000
  O   O33       1.0  0.42190000000000005  0.6268  0.3722  1.0000
  O   O34       1.0  0.5135  0.6608000000000002  0.48360000000000003  1.0000
  O   O35       1.0  0.7143  0.7335  0.48220000000000013  1.0000
  O   O36       1.0  0.7776  0.7889  0.5858  1.0000
  O   O37       1.0  0.2757  0.7307000000000001  0.3375000000000001  1.0000
  O   O38       1.0  0.35469999999999996  0.7624000000000002  0.4545  1.0000
  O   O39       1.0  0.5173  0.7652000000000001  0.5923  1.0000
  O   O40       1.0  0.4008  0.7468000000000001  0.6961000000000002  1.0000
  O   O41       1.0  0.5529  0.735  0.3417000000000001  1.0000
  O   O42       1.0  0.6729  0.7336  0.23890000000000006  1.0000
  Mg  Mg7       1.0  0.5359  0.74944  0.4678500000000001  1.0000
  Mg  Mg8       1.0  0.4143  0.69156  0.28593000000000013  1.0000
  Mg  Mg9       1.0  0.6398  0.8257100000000003  0.64569  1.0000
  H   H53       1.0  0.7025  0.6088  0.4628000000000001  1.0000
  C   C101      1.0  0.7115999999999999  0.5692  0.4813  1.0000
  H   H54       1.0  0.9034000000000001  0.5724  0.4808  1.0000
  C   C102      1.0  0.8358  0.5501000000000001  0.4941  1.0000
  C   C103      1.0  0.414  0.38310000000000005  0.015100000000000002  1.0000
  C   C104      1.0  0.4206  0.4403000000000001  0.06470000000000001  1.0000
  C   C105      1.0  0.35380000000000006  0.48650000000000004  0.0384  1.0000
  H   H55       1.0  0.3087  0.48240000000000005  0.9894000000000001  1.0000
  C   C106      1.0  0.3487  0.5399000000000002  0.0804  1.0000
  H   H56       1.0  0.2986  0.5708  0.0608  1.0000
  C   C107      1.0  0.41490000000000005  0.5479000000000002  0.1493  1.0000
  C   C108      1.0  0.4893  0.5008  0.1807  1.0000
  C   C109      1.0  0.4925  0.4461  0.13750000000000007  1.0000
  C   C110      1.0  0.5674  0.4011  0.1704  1.0000
  H   H57       1.0  0.5738  0.36490000000000006  0.1418  1.0000
  C   C111      1.0  0.6291  0.4076  0.2399  1.0000
  H   H58       1.0  0.6773  0.3761000000000001  0.2599  1.0000
  C   C112      1.0  0.623  0.4614  0.284  1.0000
  H   H59       1.0  0.6661  0.466  0.33370000000000005  1.0000
  C   C113      1.0  0.554  0.5065  0.2537000000000001  1.0000
  H   H60       1.0  0.5501  0.5426  0.2829  1.0000
  C   C114      1.0  0.41179999999999994  0.6060000000000001  0.1923  1.0000
  C   C115      1.0  0.5285  0.1207  0.0606  1.0000
  C   C116      1.0  0.4028999999999999  0.0369  0.0075  1.0000
  C   C117      1.0  0.5139  0.05790000000000001  0.0291  1.0000
  C   C118      1.0  0.6109  0.0223  0.0233  1.0000
  C   C119      1.0  0.7324  0.0429  0.0419  1.0000
  H   H61       1.0  0.7422000000000001  0.08180000000000001  0.06290000000000003  1.0000
  C   C120      1.0  0.8360000000000001  0.008500000000000002  0.030500000000000003  1.0000
  H   H62       1.0  0.9102  0.024900000000000002  0.0476  1.0000
  C   C121      1.0  0.2086  0.2616  0.9777000000000001  1.0000
  C   C122      1.0  0.0861  0.2598  0.0095  1.0000
  C   C123      1.0  0.0313  0.20800000000000005  0.0207  1.0000
  H   H63       1.0  0.0732  0.1724  0.0113  1.0000
  C   C124      1.0  0.9149  0.2039  0.04540000000000002  1.0000
  H   H64       1.0  0.879  0.16630000000000003  0.051600000000000014  1.0000
  C   C125      1.0  0.853  0.2548  0.0608  1.0000
  C   C126      1.0  0.9064  0.3107  0.0523  1.0000
  C   C127      1.0  0.025399999999999995  0.3139  0.0264  1.0000
  C   C128      1.0  0.0804  0.37020000000000003  0.0194  1.0000
  H   H65       1.0  0.1585  0.3728  0.0012  1.0000
  C   C129      1.0  0.0209  0.42070000000000013  0.0388  1.0000
  H   H66       1.0  0.0582  0.45810000000000006  0.034  1.0000
  C   C130      1.0  0.9042  0.41770000000000007  0.0659  1.0000
  H   H67       1.0  0.8646  0.4529  0.0805  1.0000
  C   C131      1.0  0.8486000000000001  0.3645  0.0712  1.0000
  H   H68       1.0  0.7695  0.36340000000000006  0.08780000000000003  1.0000
  C   C132      1.0  0.7301  0.24940000000000007  0.0911  1.0000
  C   C133      1.0  0.562  0.23780000000000004  0.8728000000000002  1.0000
  H   H69       1.0  0.5984  0.20630000000000004  0.9024000000000002  1.0000
  C   C134      1.0  0.3556  0.2508  0.19500000000000006  1.0000
  H   H70       1.0  0.30490000000000006  0.2786  0.16820000000000004  1.0000
  O   O43       1.0  0.4334  0.3358  0.0522  1.0000
  O   O44       1.0  0.3845  0.3876  0.9429000000000002  1.0000
  O   O45       1.0  0.508  0.6338000000000001  0.21010000000000006  1.0000
  O   O46       1.0  0.3149  0.6267000000000001  0.2135  1.0000
  O   O47       1.0  0.5781  0.12680000000000002  0.12780000000000005  1.0000
  O   O48       1.0  0.4865  0.16080000000000003  0.0164  1.0000
  O   O49       1.0  0.2857  0.2335  0.0178  1.0000
  O   O50       1.0  0.2224  0.28890000000000005  0.9142000000000002  1.0000
  O   O51       1.0  0.7243  0.2307  0.16250000000000006  1.0000
  O   O52       1.0  0.6453  0.2624000000000001  0.0455  1.0000
  O   O53       1.0  0.4827  0.2652  0.9077  1.0000
  O   O54       1.0  0.5992  0.24680000000000002  0.8039  1.0000
  O   O55       1.0  0.44710000000000005  0.23500000000000004  0.15830000000000005  1.0000
  O   O56       1.0  0.3271  0.2336  0.2611000000000001  1.0000
  Mg  Mg10      1.0  0.4641  0.24944  0.03215  1.0000
  Mg  Mg11      1.0  0.5857  0.19156000000000004  0.21407  1.0000
  Mg  Mg12      1.0  0.3602  0.32571000000000006  0.85431  1.0000
  H   H71       1.0  0.2975  0.10880000000000002  0.03720000000000001  1.0000
  C   C135      1.0  0.2884  0.0692  0.0187  1.0000
  H   H72       1.0  0.09660000000000002  0.0724  0.0192  1.0000
  C   C136      1.0  0.1642  0.0501  0.0059  1.0000
