data_image0
_chemical_formula_structural       CuBaC3HCHC5HCHC2O8S2CuBaC3HCHC5HCHC2O8S2CuBaC3HCHC5HCHC2O8S2CuBaC3HCHC5HCHC2O8S2
_chemical_formula_sum              "Cu4 Ba4 C48 H16 O32 S8"
_cell_length_a       12.721
_cell_length_b       13.82
_cell_length_c       14.866
_cell_angle_alpha    90.0
_cell_angle_beta     90.0
_cell_angle_gamma    90.0

_space_group_name_H-M_alt    "P 1"
_space_group_IT_number       1

loop_
  _space_group_symop_operation_xyz
  'x, y, z'

loop_
  _atom_site_type_symbol
  _atom_site_label
  _atom_site_symmetry_multiplicity
  _atom_site_fract_x
  _atom_site_fract_y
  _atom_site_fract_z
  _atom_site_occupancy
  Cu  Cu1       1.0  0.49988  0.36249  0.4850699999999999  1.0000
  Ba  Ba1       1.0  0.29508  0.19897  0.41992  1.0000
  C   C1        1.0  0.5861  0.4864  0.6003999999999998  1.0000
  C   C2        1.0  0.5941  0.5583  0.6780999999999998  1.0000
  C   C3        1.0  0.6812  0.5849  0.7263  1.0000
  H   H1        1.0  0.7483  0.5613  0.7148  1.0000
  C   C4        1.0  0.659  0.6507  0.7937999999999997  1.0000
  H   H2        1.0  0.71  0.6774  0.8310999999999997  1.0000
  C   C5        1.0  0.5553  0.6722  0.8001  1.0000
  C   C6        1.0  0.5003  0.7362  0.8667999999999998  1.0000
  C   C7        1.0  0.6022  0.2235  0.3966999999999999  1.0000
  C   C8        1.0  0.6293  0.1414  0.3340999999999999  1.0000
  C   C9        1.0  0.722  0.0945  0.32829999999999987  1.0000
  H   H3        1.0  0.7796000000000001  0.109  0.3642999999999999  1.0000
  C   C10       1.0  0.7229  0.0212  0.2621999999999999  1.0000
  H   H4        1.0  0.7809  0.983  0.24839999999999998  1.0000
  C   C11       1.0  0.6266  0.0139  0.22109999999999994  1.0000
  C   C12       1.0  0.5984  0.9492  0.1443  1.0000
  O   O1        1.0  0.49560000000000004  0.4646999999999999  0.5749999999999997  1.0000
  O   O2        1.0  0.6697000000000001  0.45629999999999993  0.5705999999999998  1.0000
  O   O3        1.0  0.40470000000000006  0.7514999999999998  0.8557  1.0000
  O   O4        1.0  0.5578  0.7688  0.9295  1.0000
  O   O5        1.0  0.5089  0.2532  0.3959  1.0000
  O   O6        1.0  0.6724000000000002  0.2568  0.4445999999999999  1.0000
  O   O7        1.0  0.5055  0.9564  0.114  1.0000
  O   O8        1.0  0.6664000000000001  0.8923  0.11319999999999997  1.0000
  S   S1        1.0  0.48235  0.61358  0.7194699999999998  1.0000
  S   S2        1.0  0.53894  0.09579999999999997  0.26087  1.0000
  Cu  Cu2       1.0  0.00012  0.63751  0.9850699999999998  1.0000
  Ba  Ba2       1.0  0.20492000000000005  0.80103  0.9199199999999997  1.0000
  C   C13       1.0  0.9139  0.5136  0.10039999999999998  1.0000
  C   C14       1.0  0.9059  0.4416999999999999  0.17809999999999995  1.0000
  C   C15       1.0  0.8188  0.41509999999999997  0.22629999999999995  1.0000
  H   H5        1.0  0.7517  0.4387  0.21479999999999994  1.0000
  C   C16       1.0  0.8410000000000001  0.3493  0.2937999999999999  1.0000
  H   H6        1.0  0.79  0.3226  0.3311  1.0000
  C   C17       1.0  0.9447  0.3278  0.30009999999999987  1.0000
  C   C18       1.0  0.9997  0.2638  0.3667999999999999  1.0000
  C   C19       1.0  0.8978000000000003  0.7765  0.8966999999999998  1.0000
  C   C20       1.0  0.8707000000000001  0.8586  0.8341  1.0000
  C   C21       1.0  0.778  0.9055  0.8282999999999998  1.0000
  H   H7        1.0  0.7204  0.891  0.8643  1.0000
  C   C22       1.0  0.7771000000000001  0.9787999999999998  0.7621999999999998  1.0000
  H   H8        1.0  0.7191000000000001  0.017  0.7484  1.0000
  C   C23       1.0  0.8734  0.9861  0.7210999999999997  1.0000
  C   C24       1.0  0.9016000000000002  0.0508  0.6442999999999999  1.0000
  O   O9        1.0  0.0044  0.5353  0.07499999999999997  1.0000
  O   O10       1.0  0.8303  0.5437  0.07059999999999997  1.0000
  O   O11       1.0  0.0953  0.2485  0.3556999999999999  1.0000
  O   O12       1.0  0.9422  0.2312  0.4294999999999999  1.0000
  O   O13       1.0  0.9911000000000001  0.7468  0.8958999999999998  1.0000
  O   O14       1.0  0.8276  0.7432  0.9445999999999998  1.0000
  O   O15       1.0  0.9945000000000002  0.043599999999999986  0.6139999999999999  1.0000
  O   O16       1.0  0.8336  0.1077  0.6131999999999997  1.0000
  S   S3        1.0  0.01765  0.38642  0.21946999999999994  1.0000
  S   S4        1.0  0.9610600000000001  0.9041999999999999  0.7608699999999998  1.0000
  Cu  Cu3       1.0  0.50012  0.86249  0.014929999999999997  1.0000
  Ba  Ba3       1.0  0.7049200000000001  0.69897  0.08007999999999998  1.0000
  C   C25       1.0  0.41390000000000005  0.9864  0.8995999999999997  1.0000
  C   C26       1.0  0.4059  0.0583  0.8219  1.0000
  C   C27       1.0  0.3188  0.0849  0.7736999999999999  1.0000
  H   H9        1.0  0.2517  0.06129999999999999  0.7851999999999998  1.0000
  C   C28       1.0  0.341  0.1507  0.7062  1.0000
  H   H10       1.0  0.29  0.1774  0.6688999999999998  1.0000
  C   C29       1.0  0.4447  0.1722  0.6998999999999997  1.0000
  C   C30       1.0  0.4997  0.2362  0.6332  1.0000
  C   C31       1.0  0.3978000000000001  0.7235  0.1033  1.0000
  C   C32       1.0  0.37070000000000003  0.6414  0.16589999999999994  1.0000
  C   C33       1.0  0.278  0.5944999999999999  0.17169999999999994  1.0000
  H   H11       1.0  0.2204  0.609  0.1357  1.0000
  C   C34       1.0  0.2771  0.5212  0.2378  1.0000
  H   H12       1.0  0.2191  0.483  0.2516  1.0000
  C   C35       1.0  0.37340000000000007  0.5139  0.2788999999999999  1.0000
  C   C36       1.0  0.4016  0.4492  0.3556999999999999  1.0000
  O   O17       1.0  0.5044000000000001  0.9647  0.925  1.0000
  O   O18       1.0  0.3303  0.9563  0.9294  1.0000
  O   O19       1.0  0.5953  0.2515  0.6442999999999999  1.0000
  O   O20       1.0  0.44220000000000004  0.2688  0.5704999999999998  1.0000
  O   O21       1.0  0.4911  0.7532  0.10409999999999997  1.0000
  O   O22       1.0  0.32760000000000006  0.7567999999999999  0.0554  1.0000
  O   O23       1.0  0.4945  0.4564  0.3859999999999999  1.0000
  O   O24       1.0  0.3336000000000001  0.39229999999999987  0.3868  1.0000
  S   S5        1.0  0.51765  0.11358  0.78053  1.0000
  S   S6        1.0  0.46106  0.5958  0.23912999999999995  1.0000
  Cu  Cu4       1.0  0.99988  0.13751  0.5149299999999998  1.0000
  Ba  Ba4       1.0  0.79508  0.30103  0.5800799999999998  1.0000
  C   C37       1.0  0.08610000000000001  0.013599999999999998  0.3995999999999999  1.0000
  C   C38       1.0  0.09410000000000002  0.9417  0.3218999999999999  1.0000
  C   C39       1.0  0.1812  0.9151  0.2737  1.0000
  H   H13       1.0  0.24830000000000005  0.9387  0.2851999999999999  1.0000
  C   C40       1.0  0.159  0.8493  0.20619999999999994  1.0000
  H   H14       1.0  0.21  0.8226  0.1689  1.0000
  C   C41       1.0  0.0553  0.8278  0.1999  1.0000
  C   C42       1.0  0.00030000000000000003  0.7638  0.13319999999999996  1.0000
  C   C43       1.0  0.1022  0.2765  0.6032999999999997  1.0000
  C   C44       1.0  0.1293  0.3586  0.6658999999999999  1.0000
  C   C45       1.0  0.222  0.4055  0.6717  1.0000
  H   H15       1.0  0.2796  0.391  0.6356999999999999  1.0000
  C   C46       1.0  0.22290000000000001  0.4788  0.7377999999999998  1.0000
  H   H16       1.0  0.2809  0.517  0.7515999999999998  1.0000
  C   C47       1.0  0.1266  0.4861  0.7789  1.0000
  C   C48       1.0  0.0984  0.5508  0.8557  1.0000
  O   O25       1.0  0.9956  0.0353  0.4249999999999999  1.0000
  O   O26       1.0  0.1697  0.0437  0.4293999999999999  1.0000
  O   O27       1.0  0.9047  0.7485  0.1443  1.0000
  O   O28       1.0  0.0578  0.7312  0.0705  1.0000
  O   O29       1.0  0.0089  0.24679999999999994  0.6040999999999997  1.0000
  O   O30       1.0  0.1724  0.2432  0.5554  1.0000
  O   O31       1.0  0.005500000000000001  0.5436  0.886  1.0000
  O   O32       1.0  0.1664  0.6077  0.8868  1.0000
  S   S7        1.0  0.9823500000000002  0.88642  0.2805299999999999  1.0000
  S   S8        1.0  0.03894  0.4042  0.7391299999999997  1.0000
