data_image0
_chemical_formula_structural       N5C13H9N5C13H9N5C13H9N5C13H9N5C13H9N5C13H9N5C13H9N5C13H9Zn4N5C13H9N5C13H9N5C13H9N5C13H9N5C13H9N5C13H9N5C13H9N5C13H9Zn4
_chemical_formula_sum              "N80 C208 H144 Zn8"
_cell_length_a       12.3804
_cell_length_b       12.3804
_cell_length_c       46.505
_cell_angle_alpha    90.0
_cell_angle_beta     90.0
_cell_angle_gamma    90.0

_space_group_name_H-M_alt    "P 1"
_space_group_IT_number       1

loop_
  _space_group_symop_operation_xyz
  'x, y, z'

loop_
  _atom_site_type_symbol
  _atom_site_label
  _atom_site_symmetry_multiplicity
  _atom_site_fract_x
  _atom_site_fract_y
  _atom_site_fract_z
  _atom_site_occupancy
  N   N1        1.0  0.079  0.8854  0.2818  1.0000
  N   N2        1.0  0.8951000000000001  0.9551  0.37659000000000004  1.0000
  N   N3        1.0  0.9256  0.1312  0.3577  1.0000
  N   N4        1.0  0.8467000000000001  0.1113  0.4044  1.0000
  N   N5        1.0  0.7469  0.7952  0.4677700000000001  1.0000
  C   C1        1.0  0.0164  0.8262  0.299  1.0000
  C   C2        1.0  0.9635  0.8669  0.3228  1.0000
  C   C3        1.0  0.9778  0.9756  0.3295  1.0000
  C   C4        1.0  0.0372  0.0402  0.3111  1.0000
  C   C5        1.0  0.08670000000000001  0.9904  0.2876  1.0000
  C   C6        1.0  0.9293  0.0238  0.35590000000000005  1.0000
  C   C7        1.0  0.8801  0.1706  0.382  1.0000
  C   C8        1.0  0.8547  0.0054  0.4001  1.0000
  C   C9        1.0  0.8206  0.9317  0.4237  1.0000
  C   C10       1.0  0.8197000000000002  0.8200000000000001  0.4202  1.0000
  C   C11       1.0  0.7832000000000001  0.7528000000000001  0.4426  1.0000
  C   C12       1.0  0.7474  0.9032  0.4705  1.0000
  C   C13       1.0  0.7815  0.9727  0.4501  1.0000
  H   H1        1.0  0.008  0.7504  0.2947  1.0000
  H   H2        1.0  0.9174  0.8221000000000002  0.334  1.0000
  H   H3        1.0  0.0432  0.11830000000000002  0.3145  1.0000
  H   H4        1.0  0.128  0.035  0.2746  1.0000
  H   H5        1.0  0.8718000000000001  0.2482  0.38360000000000005  1.0000
  H   H6        1.0  0.8430000000000001  0.7883  0.4026  1.0000
  H   H7        1.0  0.7843000000000001  0.6778  0.43970000000000004  1.0000
  H   H8        1.0  0.7216000000000001  0.9327000000000001  0.4883  1.0000
  H   H9        1.0  0.7802  0.049400000000000006  0.4533  1.0000
  N   N6        1.0  0.9210000000000002  0.11460000000000001  0.7818  1.0000
  N   N7        1.0  0.1049  0.04490000000000001  0.87659  1.0000
  N   N8        1.0  0.0744  0.8688  0.8577000000000001  1.0000
  N   N9        1.0  0.1533  0.8887000000000003  0.9044  1.0000
  N   N10       1.0  0.2531  0.20480000000000004  0.96777  1.0000
  C   C14       1.0  0.9836  0.1738  0.799  1.0000
  C   C15       1.0  0.0365  0.1331  0.8228  1.0000
  C   C16       1.0  0.0222  0.024400000000000005  0.8295  1.0000
  C   C17       1.0  0.9628000000000001  0.9598  0.8111  1.0000
  C   C18       1.0  0.9133000000000002  0.0096  0.7876  1.0000
  C   C19       1.0  0.0707  0.9762  0.8559  1.0000
  C   C20       1.0  0.1199  0.8294  0.8820000000000001  1.0000
  C   C21       1.0  0.1453  0.9946  0.9001000000000001  1.0000
  C   C22       1.0  0.17940000000000003  0.0683  0.9237  1.0000
  C   C23       1.0  0.1803  0.18000000000000005  0.9202000000000001  1.0000
  C   C24       1.0  0.2168  0.2472  0.9426  1.0000
  C   C25       1.0  0.2526  0.0968  0.9705000000000001  1.0000
  C   C26       1.0  0.2185  0.02730000000000001  0.9501000000000001  1.0000
  H   H10       1.0  0.992  0.2496  0.7947  1.0000
  H   H11       1.0  0.0826  0.1779  0.834  1.0000
  H   H12       1.0  0.9568  0.8817  0.8145  1.0000
  H   H13       1.0  0.872  0.965  0.7746  1.0000
  H   H14       1.0  0.1282  0.7518  0.8836  1.0000
  H   H15       1.0  0.157  0.2117  0.9026000000000001  1.0000
  H   H16       1.0  0.21570000000000006  0.3222  0.9397  1.0000
  H   H17       1.0  0.2784  0.0673  0.9883000000000001  1.0000
  H   H18       1.0  0.21980000000000005  0.9506000000000002  0.9533000000000001  1.0000
  N   N11       1.0  0.6146  0.579  0.5318  1.0000
  N   N12       1.0  0.5449  0.3951  0.62659  1.0000
  N   N13       1.0  0.3688  0.42560000000000003  0.6077  1.0000
  N   N14       1.0  0.38870000000000005  0.3467  0.6544  1.0000
  N   N15       1.0  0.7048  0.24690000000000006  0.71777  1.0000
  C   C27       1.0  0.6738  0.5164  0.549  1.0000
  C   C28       1.0  0.6331000000000001  0.4635  0.5728  1.0000
  C   C29       1.0  0.5244  0.4778000000000001  0.5795  1.0000
  C   C30       1.0  0.4598  0.5372  0.5611  1.0000
  C   C31       1.0  0.5096  0.5867  0.5376  1.0000
  C   C32       1.0  0.4762  0.42930000000000007  0.6059  1.0000
  C   C33       1.0  0.3294  0.38010000000000005  0.632  1.0000
  C   C34       1.0  0.4946  0.35470000000000007  0.6501  1.0000
  C   C35       1.0  0.5683  0.3206  0.6737  1.0000
  C   C36       1.0  0.68  0.3197  0.6702  1.0000
  C   C37       1.0  0.7472  0.2832  0.6926  1.0000
  C   C38       1.0  0.5968  0.2474  0.7205  1.0000
  C   C39       1.0  0.5273  0.2815  0.7001  1.0000
  H   H19       1.0  0.7496000000000002  0.508  0.5447  1.0000
  H   H20       1.0  0.6779  0.41740000000000005  0.584  1.0000
  H   H21       1.0  0.38170000000000004  0.5432  0.5645  1.0000
  H   H22       1.0  0.4650000000000001  0.628  0.5246  1.0000
  H   H23       1.0  0.2518  0.3718  0.6336  1.0000
  H   H24       1.0  0.7117  0.343  0.6526  1.0000
  H   H25       1.0  0.8222  0.2843  0.6897000000000001  1.0000
  H   H26       1.0  0.5673  0.22160000000000002  0.7382999999999998  1.0000
  H   H27       1.0  0.45060000000000006  0.2802  0.7032999999999999  1.0000
  N   N16       1.0  0.3854000000000001  0.421  0.0318  1.0000
  N   N17       1.0  0.45510000000000006  0.6049  0.12659  1.0000
  N   N18       1.0  0.6312  0.5744  0.1077  1.0000
  N   N19       1.0  0.6113000000000001  0.6533  0.1544  1.0000
  N   N20       1.0  0.2952  0.7531000000000001  0.21777000000000002  1.0000
  C   C40       1.0  0.3262  0.4836  0.049  1.0000
  C   C41       1.0  0.3669  0.5365  0.0728  1.0000
  C   C42       1.0  0.4756  0.5222  0.0795  1.0000
  C   C43       1.0  0.5402  0.4628  0.06110000000000001  1.0000
  C   C44       1.0  0.49040000000000006  0.41330000000000006  0.0376  1.0000
  C   C45       1.0  0.5238  0.5707  0.10590000000000001  1.0000
  C   C46       1.0  0.6706000000000001  0.6199  0.132  1.0000
  C   C47       1.0  0.5054  0.6453  0.1501  1.0000
  C   C48       1.0  0.43170000000000003  0.6794  0.17370000000000002  1.0000
  C   C49       1.0  0.32  0.6803000000000002  0.1702  1.0000
  C   C50       1.0  0.2528  0.7168000000000002  0.1926  1.0000
  C   C51       1.0  0.4032  0.7526  0.22050000000000003  1.0000
  C   C52       1.0  0.4727  0.7185  0.2001  1.0000
  H   H28       1.0  0.2504  0.49200000000000005  0.0447  1.0000
  H   H29       1.0  0.3221  0.5826  0.084  1.0000
  H   H30       1.0  0.6183  0.4568000000000001  0.0645  1.0000
  H   H31       1.0  0.535  0.372  0.0246  1.0000
  H   H32       1.0  0.7482  0.6282  0.1336  1.0000
  H   H33       1.0  0.2883  0.657  0.1526  1.0000
  H   H34       1.0  0.1778  0.7157  0.1897  1.0000
  H   H35       1.0  0.4327  0.7784  0.2383  1.0000
  H   H36       1.0  0.5494  0.7198  0.2033  1.0000
  N   N21       1.0  0.421  0.3854000000000001  0.9682000000000001  1.0000
  N   N22       1.0  0.6049  0.45510000000000006  0.87341  1.0000
  N   N23       1.0  0.5744  0.6312  0.8923  1.0000
  N   N24       1.0  0.6533  0.6113000000000001  0.8456  1.0000
  N   N25       1.0  0.7531000000000001  0.2952  0.78223  1.0000
  C   C53       1.0  0.4836  0.3262  0.951  1.0000
  C   C54       1.0  0.5365  0.3669  0.9272  1.0000
  C   C55       1.0  0.5222  0.4756  0.9205  1.0000
  C   C56       1.0  0.4628  0.5402  0.9389  1.0000
  C   C57       1.0  0.41330000000000006  0.49040000000000006  0.9624  1.0000
  C   C58       1.0  0.5707  0.5238  0.8941  1.0000
  C   C59       1.0  0.6199  0.6706000000000001  0.868  1.0000
  C   C60       1.0  0.6453  0.5054  0.8499  1.0000
  C   C61       1.0  0.6794  0.43170000000000003  0.8263000000000001  1.0000
  C   C62       1.0  0.6803000000000002  0.32  0.8298  1.0000
  C   C63       1.0  0.7168000000000002  0.2528  0.8074  1.0000
  C   C64       1.0  0.7526  0.4032  0.7795  1.0000
  C   C65       1.0  0.7185  0.4727  0.7999  1.0000
  H   H37       1.0  0.49200000000000005  0.2504  0.9553  1.0000
  H   H38       1.0  0.5826  0.3221  0.916  1.0000
  H   H39       1.0  0.4568000000000001  0.6183  0.9355  1.0000
  H   H40       1.0  0.372  0.535  0.9754  1.0000
  H   H41       1.0  0.6282  0.7482  0.8664000000000001  1.0000
  H   H42       1.0  0.657  0.2883  0.8474  1.0000
  H   H43       1.0  0.7157  0.1778  0.8103  1.0000
  H   H44       1.0  0.7784  0.4327  0.7617  1.0000
  H   H45       1.0  0.7198  0.5494  0.7967  1.0000
  N   N26       1.0  0.579  0.6146  0.4682  1.0000
  N   N27       1.0  0.3951  0.5449  0.37341  1.0000
  N   N28       1.0  0.42560000000000003  0.3688  0.3923  1.0000
  N   N29       1.0  0.3467  0.38870000000000005  0.3456000000000001  1.0000
  N   N30       1.0  0.24690000000000006  0.7048  0.28223  1.0000
  C   C66       1.0  0.5164  0.6738  0.451  1.0000
  C   C67       1.0  0.4635  0.6331000000000001  0.4272  1.0000
  C   C68       1.0  0.4778000000000001  0.5244  0.42050000000000004  1.0000
  C   C69       1.0  0.5372  0.4598  0.43890000000000007  1.0000
  C   C70       1.0  0.5867  0.5096  0.4624  1.0000
  C   C71       1.0  0.42930000000000007  0.4762  0.3941  1.0000
  C   C72       1.0  0.38010000000000005  0.3294  0.368  1.0000
  C   C73       1.0  0.35470000000000007  0.4946  0.3499  1.0000
  C   C74       1.0  0.3206  0.5683  0.3263  1.0000
  C   C75       1.0  0.3197  0.68  0.3298  1.0000
  C   C76       1.0  0.2832  0.7472  0.3074  1.0000
  C   C77       1.0  0.2474  0.5968  0.2795  1.0000
  C   C78       1.0  0.2815  0.5273  0.2999  1.0000
  H   H46       1.0  0.508  0.7496000000000002  0.4553  1.0000
  H   H47       1.0  0.41740000000000005  0.6779  0.416  1.0000
  H   H48       1.0  0.5432  0.38170000000000004  0.4355  1.0000
  H   H49       1.0  0.628  0.4650000000000001  0.4754  1.0000
  H   H50       1.0  0.3718  0.2518  0.3664  1.0000
  H   H51       1.0  0.343  0.7117  0.34740000000000004  1.0000
  H   H52       1.0  0.2843  0.8222  0.3103  1.0000
  H   H53       1.0  0.22160000000000002  0.5673  0.2617  1.0000
  H   H54       1.0  0.2802  0.45060000000000006  0.2967  1.0000
  N   N31       1.0  0.8854  0.079  0.7182  1.0000
  N   N32       1.0  0.9551  0.8951000000000001  0.62341  1.0000
  N   N33       1.0  0.1312  0.9256  0.6423  1.0000
  N   N34       1.0  0.1113  0.8467000000000001  0.5956  1.0000
  N   N35       1.0  0.7952  0.7469  0.53223  1.0000
  C   C79       1.0  0.8262  0.0164  0.7010000000000001  1.0000
  C   C80       1.0  0.8669  0.9635  0.6772  1.0000
  C   C81       1.0  0.9756  0.9778  0.6705  1.0000
  C   C82       1.0  0.0402  0.0372  0.6889  1.0000
  C   C83       1.0  0.9904  0.08670000000000001  0.7124000000000001  1.0000
  C   C84       1.0  0.0238  0.9293  0.6441  1.0000
  C   C85       1.0  0.1706  0.8801  0.618  1.0000
  C   C86       1.0  0.0054  0.8547  0.5999  1.0000
  C   C87       1.0  0.9317  0.8206  0.5763  1.0000
  C   C88       1.0  0.8200000000000001  0.8197000000000002  0.5798  1.0000
  C   C89       1.0  0.7528000000000001  0.7832000000000001  0.5574  1.0000
  C   C90       1.0  0.9032  0.7474  0.5295  1.0000
  C   C91       1.0  0.9727  0.7815  0.5499  1.0000
  H   H55       1.0  0.7504  0.008  0.7053000000000001  1.0000
  H   H56       1.0  0.8221000000000002  0.9174  0.666  1.0000
  H   H57       1.0  0.11830000000000002  0.0432  0.6855  1.0000
  H   H58       1.0  0.035  0.128  0.7254000000000002  1.0000
  H   H59       1.0  0.2482  0.8718000000000001  0.6164  1.0000
  H   H60       1.0  0.7883  0.8430000000000001  0.5974  1.0000
  H   H61       1.0  0.6778  0.7843000000000001  0.5603  1.0000
  H   H62       1.0  0.9327000000000001  0.7216000000000001  0.5117  1.0000
  H   H63       1.0  0.049400000000000006  0.7802  0.5467  1.0000
  N   N36       1.0  0.11460000000000001  0.9210000000000002  0.2182  1.0000
  N   N37       1.0  0.04490000000000001  0.1049  0.12340999999999999  1.0000
  N   N38       1.0  0.8688  0.0744  0.1423  1.0000
  N   N39       1.0  0.8887000000000003  0.1533  0.0956  1.0000
  N   N40       1.0  0.20480000000000004  0.2531  0.03223  1.0000
  C   C92       1.0  0.1738  0.9836  0.20100000000000004  1.0000
  C   C93       1.0  0.1331  0.0365  0.1772  1.0000
  C   C94       1.0  0.024400000000000005  0.0222  0.1705  1.0000
  C   C95       1.0  0.9598  0.9628000000000001  0.1889  1.0000
  C   C96       1.0  0.0096  0.9133000000000002  0.2124  1.0000
  C   C97       1.0  0.9762  0.0707  0.1441  1.0000
  C   C98       1.0  0.8294  0.1199  0.118  1.0000
  C   C99       1.0  0.9946  0.1453  0.09990000000000002  1.0000
  C   C100      1.0  0.0683  0.17940000000000003  0.0763  1.0000
  C   C101      1.0  0.18000000000000005  0.1803  0.0798  1.0000
  C   C102      1.0  0.2472  0.2168  0.0574  1.0000
  C   C103      1.0  0.0968  0.2526  0.0295  1.0000
  C   C104      1.0  0.02730000000000001  0.2185  0.0499  1.0000
  H   H64       1.0  0.2496  0.992  0.20529999999999998  1.0000
  H   H65       1.0  0.1779  0.0826  0.166  1.0000
  H   H66       1.0  0.8817  0.9568  0.18549999999999997  1.0000
  H   H67       1.0  0.965  0.872  0.2254  1.0000
  H   H68       1.0  0.7518  0.1282  0.11640000000000002  1.0000
  H   H69       1.0  0.2117  0.157  0.0974  1.0000
  H   H70       1.0  0.3222  0.21570000000000006  0.060300000000000006  1.0000
  H   H71       1.0  0.0673  0.2784  0.011699999999999999  1.0000
  H   H72       1.0  0.9506000000000002  0.21980000000000005  0.0467  1.0000
  Zn  Zn1       1.0  0.18518  0.81482  0.25  1.0000
  Zn  Zn2       1.0  0.81482  0.18518  0.75  1.0000
  Zn  Zn3       1.0  0.68518  0.68518  0.5  1.0000
  Zn  Zn4       1.0  0.31482  0.31482  0.0  1.0000
  N   N41       1.0  0.8518  0.3466  0.2761  1.0000
  N   N42       1.0  0.0656  0.4484  0.36256  1.0000
  N   N43       1.0  0.0398  0.6196  0.34  1.0000
  N   N44       1.0  0.12210000000000001  0.612  0.3859  1.0000
  N   N45       1.0  0.18880000000000002  0.3227  0.46064  1.0000
  C   C105      1.0  0.9118  0.2939  0.2953  1.0000
  C   C106      1.0  0.9751  0.3433  0.3157  1.0000
  C   C107      1.0  0.9731000000000002  0.4542  0.3172  1.0000
  C   C108      1.0  0.9119  0.5131  0.2975  1.0000
  C   C109      1.0  0.8507  0.4528  0.2772  1.0000
  C   C110      1.0  0.0312  0.5116  0.3412  1.0000
  C   C111      1.0  0.0875  0.6616000000000001  0.3626  1.0000
  C   C112      1.0  0.10920000000000003  0.5044  0.3848  1.0000
  C   C113      1.0  0.1396  0.4401  0.4105  1.0000
  C   C114      1.0  0.1428  0.327  0.4104  1.0000
  C   C115      1.0  0.1668  0.2725  0.4357  1.0000
  C   C116      1.0  0.1859  0.4294  0.46010000000000006  1.0000
  C   C117      1.0  0.1641  0.4931  0.436  1.0000
  H   H73       1.0  0.913  0.2179  0.2942  1.0000
  H   H74       1.0  0.017  0.3032  0.3288  1.0000
  H   H75       1.0  0.9106  0.5895  0.2976  1.0000
  H   H76       1.0  0.8087  0.4905000000000001  0.2633  1.0000
  H   H77       1.0  0.0989  0.7393000000000002  0.36240000000000006  1.0000
  H   H78       1.0  0.1252  0.2878  0.39350000000000007  1.0000
  H   H79       1.0  0.1682  0.19660000000000002  0.43559999999999993  1.0000
  H   H80       1.0  0.19580000000000003  0.4659  0.47790000000000005  1.0000
  H   H81       1.0  0.1664  0.5702  0.43660000000000004  1.0000
  N   N46       1.0  0.1482  0.6534000000000001  0.7761  1.0000
  N   N47       1.0  0.9344  0.5516  0.86256  1.0000
  N   N48       1.0  0.9602  0.3804  0.84  1.0000
  N   N49       1.0  0.8779000000000001  0.388  0.8859  1.0000
  N   N50       1.0  0.8112000000000003  0.6773  0.96064  1.0000
  C   C118      1.0  0.0882  0.7061  0.7953  1.0000
  C   C119      1.0  0.0249  0.6567  0.8157  1.0000
  C   C120      1.0  0.0269  0.5458  0.8172  1.0000
  C   C121      1.0  0.0881  0.4869  0.7975  1.0000
  C   C122      1.0  0.1493  0.5472  0.7772  1.0000
  C   C123      1.0  0.9688  0.48840000000000006  0.8411999999999998  1.0000
  C   C124      1.0  0.9125  0.3384  0.8626  1.0000
  C   C125      1.0  0.8908000000000003  0.4956  0.8847999999999999  1.0000
  C   C126      1.0  0.8604000000000002  0.5599  0.9104999999999999  1.0000
  C   C127      1.0  0.8572  0.673  0.9104  1.0000
  C   C128      1.0  0.8332000000000002  0.7275  0.9357000000000001  1.0000
  C   C129      1.0  0.8141000000000003  0.5706  0.9601  1.0000
  C   C130      1.0  0.8359000000000001  0.5069  0.9359999999999999  1.0000
  H   H82       1.0  0.08700000000000001  0.7821  0.7942  1.0000
  H   H83       1.0  0.983  0.6968  0.8288000000000001  1.0000
  H   H84       1.0  0.0894  0.4105  0.7976  1.0000
  H   H85       1.0  0.19130000000000005  0.5095  0.7633  1.0000
  H   H86       1.0  0.9011  0.2607  0.8624  1.0000
  H   H87       1.0  0.8748  0.7122  0.8935  1.0000
  H   H88       1.0  0.8318  0.8034  0.9356  1.0000
  H   H89       1.0  0.8042  0.5341  0.9779  1.0000
  H   H90       1.0  0.8336  0.4298000000000001  0.9366  1.0000
  N   N51       1.0  0.1534  0.35180000000000006  0.5261  1.0000
  N   N52       1.0  0.0516  0.5656  0.61256  1.0000
  N   N53       1.0  0.8804  0.5398  0.59  1.0000
  N   N54       1.0  0.888  0.6221  0.6359  1.0000
  N   N55       1.0  0.1773  0.6888000000000001  0.71064  1.0000
  C   C131      1.0  0.2061  0.4118  0.5453  1.0000
  C   C132      1.0  0.1567  0.4751  0.5657  1.0000
  C   C133      1.0  0.0458  0.4731  0.5672  1.0000
  C   C134      1.0  0.9869000000000001  0.4119  0.5475  1.0000
  C   C135      1.0  0.047200000000000006  0.3507  0.5272  1.0000
  C   C136      1.0  0.9884  0.5312  0.5912  1.0000
  C   C137      1.0  0.8384  0.5875  0.6126  1.0000
  C   C138      1.0  0.9956000000000002  0.6092  0.6348  1.0000
  C   C139      1.0  0.0599  0.6396000000000001  0.6605  1.0000
  C   C140      1.0  0.17300000000000001  0.6428  0.6604  1.0000
  C   C141      1.0  0.2275  0.6668  0.6857  1.0000
  C   C142      1.0  0.0706  0.6859000000000001  0.7101  1.0000
  C   C143      1.0  0.006900000000000001  0.6641  0.686  1.0000
  H   H91       1.0  0.2821  0.413  0.5442  1.0000
  H   H92       1.0  0.19680000000000003  0.517  0.5788  1.0000
  H   H93       1.0  0.9105  0.4106  0.5476  1.0000
  H   H94       1.0  0.0095  0.3087  0.5133  1.0000
  H   H95       1.0  0.7607000000000002  0.5989  0.6124  1.0000
  H   H96       1.0  0.21220000000000003  0.6252  0.6435  1.0000
  H   H97       1.0  0.3034  0.6682000000000001  0.6856  1.0000
  H   H98       1.0  0.0341  0.6958  0.7279000000000001  1.0000
  H   H99       1.0  0.9298000000000001  0.6664  0.6866  1.0000
  N   N56       1.0  0.8466  0.6482  0.0261  1.0000
  N   N57       1.0  0.9484  0.4344  0.11256000000000001  1.0000
  N   N58       1.0  0.1196  0.4602  0.09000000000000001  1.0000
  N   N59       1.0  0.112  0.3779  0.1359  1.0000
  N   N60       1.0  0.8227  0.3112  0.21064  1.0000
  C   C144      1.0  0.7939  0.5882  0.04530000000000001  1.0000
  C   C145      1.0  0.8433  0.5249  0.0657  1.0000
  C   C146      1.0  0.9542  0.5269  0.0672  1.0000
  C   C147      1.0  0.0131  0.5881  0.0475  1.0000
  C   C148      1.0  0.9528000000000001  0.6493  0.027200000000000002  1.0000
  C   C149      1.0  0.0116  0.4688  0.09120000000000002  1.0000
  C   C150      1.0  0.1616  0.4125000000000001  0.1126  1.0000
  C   C151      1.0  0.0044  0.3908  0.1348  1.0000
  C   C152      1.0  0.9401  0.36040000000000005  0.1605  1.0000
  C   C153      1.0  0.827  0.35720000000000013  0.1604  1.0000
  C   C154      1.0  0.7725  0.3332  0.1857  1.0000
  C   C155      1.0  0.9294  0.3141  0.2101  1.0000
  C   C156      1.0  0.9931  0.3359  0.18600000000000003  1.0000
  H   H100      1.0  0.7179000000000001  0.587  0.0442  1.0000
  H   H101      1.0  0.8032  0.48300000000000004  0.0788  1.0000
  H   H102      1.0  0.0895  0.5894  0.04760000000000001  1.0000
  H   H103      1.0  0.9905000000000003  0.6913  0.0133  1.0000
  H   H104      1.0  0.23930000000000004  0.4011  0.11239999999999999  1.0000
  H   H105      1.0  0.7878  0.3748000000000001  0.1435  1.0000
  H   H106      1.0  0.6966  0.3318  0.1856  1.0000
  H   H107      1.0  0.9659  0.3042  0.2279  1.0000
  H   H108      1.0  0.0702  0.3336  0.1866  1.0000
  N   N61       1.0  0.6482  0.8466  0.9739000000000001  1.0000
  N   N62       1.0  0.4344  0.9484  0.8874400000000001  1.0000
  N   N63       1.0  0.4602  0.1196  0.9100000000000001  1.0000
  N   N64       1.0  0.3779  0.112  0.8641  1.0000
  N   N65       1.0  0.3112  0.8227  0.78936  1.0000
  C   C157      1.0  0.5882  0.7939  0.9547  1.0000
  C   C158      1.0  0.5249  0.8433  0.9343000000000001  1.0000
  C   C159      1.0  0.5269  0.9542  0.9328  1.0000
  C   C160      1.0  0.5881  0.0131  0.9525  1.0000
  C   C161      1.0  0.6493  0.9528000000000001  0.9728  1.0000
  C   C162      1.0  0.4688  0.0116  0.9088  1.0000
  C   C163      1.0  0.4125000000000001  0.1616  0.8874  1.0000
  C   C164      1.0  0.3908  0.0044  0.8652  1.0000
  C   C165      1.0  0.36040000000000005  0.9401  0.8395  1.0000
  C   C166      1.0  0.35720000000000013  0.827  0.8396000000000001  1.0000
  C   C167      1.0  0.3332  0.7725  0.8143  1.0000
  C   C168      1.0  0.3141  0.9294  0.7899  1.0000
  C   C169      1.0  0.3359  0.9931  0.814  1.0000
  H   H109      1.0  0.587  0.7179000000000001  0.9558000000000001  1.0000
  H   H110      1.0  0.48300000000000004  0.8032  0.9212  1.0000
  H   H111      1.0  0.5894  0.0895  0.9524000000000001  1.0000
  H   H112      1.0  0.6913  0.9905000000000003  0.9867  1.0000
  H   H113      1.0  0.4011  0.23930000000000004  0.8876000000000001  1.0000
  H   H114      1.0  0.3748000000000001  0.7878  0.8565  1.0000
  H   H115      1.0  0.3318  0.6966  0.8144000000000001  1.0000
  H   H116      1.0  0.3042  0.9659  0.7721  1.0000
  H   H117      1.0  0.3336  0.0702  0.8134  1.0000
  N   N66       1.0  0.35180000000000006  0.1534  0.4739  1.0000
  N   N67       1.0  0.5656  0.0516  0.38744  1.0000
  N   N68       1.0  0.5398  0.8804  0.4099999999999999  1.0000
  N   N69       1.0  0.6221  0.888  0.3641  1.0000
  N   N70       1.0  0.6888000000000001  0.1773  0.28936  1.0000
  C   C170      1.0  0.4118  0.2061  0.45470000000000005  1.0000
  C   C171      1.0  0.4751  0.1567  0.4343  1.0000
  C   C172      1.0  0.4731  0.0458  0.4328000000000001  1.0000
  C   C173      1.0  0.4119  0.9869000000000001  0.4525  1.0000
  C   C174      1.0  0.3507  0.047200000000000006  0.47280000000000005  1.0000
  C   C175      1.0  0.5312  0.9884  0.4088  1.0000
  C   C176      1.0  0.5875  0.8384  0.3874  1.0000
  C   C177      1.0  0.6092  0.9956000000000002  0.3652  1.0000
  C   C178      1.0  0.6396000000000001  0.0599  0.3395  1.0000
  C   C179      1.0  0.6428  0.17300000000000001  0.3396  1.0000
  C   C180      1.0  0.6668  0.2275  0.3143  1.0000
  C   C181      1.0  0.6859000000000001  0.0706  0.2899  1.0000
  C   C182      1.0  0.6641  0.006900000000000001  0.314  1.0000
  H   H118      1.0  0.413  0.2821  0.4558  1.0000
  H   H119      1.0  0.517  0.19680000000000003  0.42119999999999996  1.0000
  H   H120      1.0  0.4106  0.9105  0.4524  1.0000
  H   H121      1.0  0.3087  0.0095  0.4867  1.0000
  H   H122      1.0  0.5989  0.7607000000000002  0.3876  1.0000
  H   H123      1.0  0.6252  0.21220000000000003  0.3565  1.0000
  H   H124      1.0  0.6682000000000001  0.3034  0.3144  1.0000
  H   H125      1.0  0.6958  0.0341  0.2721  1.0000
  H   H126      1.0  0.6664  0.9298000000000001  0.3134  1.0000
  N   N71       1.0  0.3466  0.8518  0.7238999999999999  1.0000
  N   N72       1.0  0.4484  0.0656  0.63744  1.0000
  N   N73       1.0  0.6196  0.0398  0.66  1.0000
  N   N74       1.0  0.612  0.12210000000000001  0.6141  1.0000
  N   N75       1.0  0.3227  0.18880000000000002  0.53936  1.0000
  C   C183      1.0  0.2939  0.9118  0.7047000000000001  1.0000
  C   C184      1.0  0.3433  0.9751  0.6843  1.0000
  C   C185      1.0  0.4542  0.9731000000000002  0.6828  1.0000
  C   C186      1.0  0.5131  0.9119  0.7025000000000001  1.0000
  C   C187      1.0  0.4528  0.8507  0.7228000000000001  1.0000
  C   C188      1.0  0.5116  0.0312  0.6588  1.0000
  C   C189      1.0  0.6616000000000001  0.0875  0.6374  1.0000
  C   C190      1.0  0.5044  0.10920000000000003  0.6152  1.0000
  C   C191      1.0  0.4401  0.1396  0.5895  1.0000
  C   C192      1.0  0.327  0.1428  0.5896  1.0000
  C   C193      1.0  0.2725  0.1668  0.5643  1.0000
  C   C194      1.0  0.4294  0.1859  0.5399  1.0000
  C   C195      1.0  0.4931  0.1641  0.564  1.0000
  H   H127      1.0  0.2179  0.913  0.7057999999999999  1.0000
  H   H128      1.0  0.3032  0.017  0.6712  1.0000
  H   H129      1.0  0.5895  0.9106  0.7024  1.0000
  H   H130      1.0  0.4905000000000001  0.8087  0.7367000000000001  1.0000
  H   H131      1.0  0.7393000000000002  0.0989  0.6376  1.0000
  H   H132      1.0  0.2878  0.1252  0.6065  1.0000
  H   H133      1.0  0.19660000000000002  0.1682  0.5644  1.0000
  H   H134      1.0  0.4659  0.19580000000000003  0.5221  1.0000
  H   H135      1.0  0.5702  0.1664  0.5634  1.0000
  N   N76       1.0  0.6534000000000001  0.1482  0.2239  1.0000
  N   N77       1.0  0.5516  0.9344  0.13744  1.0000
  N   N78       1.0  0.3804  0.9602  0.16  1.0000
  N   N79       1.0  0.388  0.8779000000000001  0.11410000000000001  1.0000
  N   N80       1.0  0.6773  0.8112000000000003  0.03936  1.0000
  C   C196      1.0  0.7061  0.0882  0.2047  1.0000
  C   C197      1.0  0.6567  0.0249  0.18430000000000002  1.0000
  C   C198      1.0  0.5458  0.0269  0.1828  1.0000
  C   C199      1.0  0.4869  0.0881  0.2025  1.0000
  C   C200      1.0  0.5472  0.1493  0.2228  1.0000
  C   C201      1.0  0.48840000000000006  0.9688  0.1588  1.0000
  C   C202      1.0  0.3384  0.9125  0.1374  1.0000
  C   C203      1.0  0.4956  0.8908000000000003  0.1152  1.0000
  C   C204      1.0  0.5599  0.8604000000000002  0.08950000000000001  1.0000
  C   C205      1.0  0.673  0.8572  0.0896  1.0000
  C   C206      1.0  0.7275  0.8332000000000002  0.0643  1.0000
  C   C207      1.0  0.5706  0.8141000000000003  0.0399  1.0000
  C   C208      1.0  0.5069  0.8359000000000001  0.064  1.0000
  H   H136      1.0  0.7821  0.08700000000000001  0.20580000000000004  1.0000
  H   H137      1.0  0.6968  0.983  0.1712  1.0000
  H   H138      1.0  0.4105  0.0894  0.20240000000000002  1.0000
  H   H139      1.0  0.5095  0.19130000000000005  0.2367  1.0000
  H   H140      1.0  0.2607  0.9011  0.1376  1.0000
  H   H141      1.0  0.7122  0.8748  0.10650000000000001  1.0000
  H   H142      1.0  0.8034  0.8318  0.0644  1.0000
  H   H143      1.0  0.5341  0.8042  0.0221  1.0000
  H   H144      1.0  0.4298000000000001  0.8336  0.0634  1.0000
  Zn  Zn5       1.0  0.74361  0.25639  0.25  1.0000
  Zn  Zn6       1.0  0.25639  0.74361  0.75  1.0000
  Zn  Zn7       1.0  0.24361000000000002  0.24361000000000002  0.5  1.0000
  Zn  Zn8       1.0  0.75639  0.75639  0.0  1.0000
