data_image0
_chemical_formula_structural       LaS3O6CH2CH2CH2CH2CH2CH2C3LaS3O6CH2CH2CH2CH2CH2CH2C3
_chemical_formula_sum              "La2 S6 O12 C18 H24"
_cell_length_a       9.1258
_cell_length_b       11.138000000000002
_cell_length_c       11.3262
_cell_angle_alpha    77.317
_cell_angle_beta     68.681
_cell_angle_gamma    79.25

_space_group_name_H-M_alt    "P 1"
_space_group_IT_number       1

loop_
  _space_group_symop_operation_xyz
  'x, y, z'

loop_
  _atom_site_type_symbol
  _atom_site_label
  _atom_site_symmetry_multiplicity
  _atom_site_fract_x
  _atom_site_fract_y
  _atom_site_fract_z
  _atom_site_occupancy
  La  La1       1.0  0.23462999999999995  0.51922  0.5184  1.0000
  S   S1        1.0  0.19639999999999988  0.619  0.9960900000000001  1.0000
  S   S2        1.0  0.41180999999999995  0.23535  0.93975  1.0000
  S   S3        1.0  0.34837999999999997  0.05074  0.37636  1.0000
  O   O1        1.0  0.06750000000000003  0.5467  0.3764  1.0000
  O   O2        1.0  0.41690000000000005  0.40029999999999993  0.3317  1.0000
  O   O3        1.0  0.9277  0.5756  0.24980000000000005  1.0000
  O   O4        1.0  0.23669999999999997  0.2927  0.4823  1.0000
  O   O5        1.0  0.6481  0.3083  0.6658  1.0000
  O   O6        1.0  0.45339999999999986  0.3952  0.5951  1.0000
  C   C1        1.0  0.4135  0.012600000000000004  0.5174  1.0000
  H   H1        1.0  0.37589999999999996  0.08110000000000003  0.5651  1.0000
  H   H2        1.0  0.3660999999999999  0.9403  0.5731  1.0000
  C   C2        1.0  0.206  0.6003  0.15460000000000002  1.0000
  H   H3        1.0  0.28850000000000003  0.5334  0.1627  1.0000
  H   H4        1.0  0.23819999999999997  0.6755  0.16280000000000003  1.0000
  C   C3        1.0  0.38109999999999994  0.3979  0.9529  1.0000
  H   H5        1.0  0.4189  0.407  0.0198  1.0000
  H   H6        1.0  0.4452000000000001  0.44269999999999987  0.8726000000000002  1.0000
  C   C4        1.0  0.21049999999999983  0.4577  0.9828000000000002  1.0000
  H   H7        1.0  0.1446  0.41380000000000006  0.0628  1.0000
  H   H8        1.0  0.17200000000000001  0.452  0.9151  1.0000
  C   C5        1.0  0.39200000000000007  0.24309999999999998  0.7852000000000001  1.0000
  H   H9        1.0  0.4084  0.15959999999999996  0.7669  1.0000
  H   H10       1.0  0.2846  0.27749999999999997  0.7900000000000001  1.0000
  C   C6        1.0  0.4156  0.1962  0.30200000000000005  1.0000
  H   H11       1.0  0.5299999999999998  0.1857  0.27830000000000005  1.0000
  H   H12       1.0  0.39110000000000006  0.2209  0.22300000000000006  1.0000
  C   C7        1.0  0.05600000000000001  0.5733  0.2654  1.0000
  C   C8        1.0  0.3504  0.3021  0.3785  1.0000
  C   C9        1.0  0.5060000000000001  0.3199999999999999  0.6754  1.0000
  La  La2       1.0  0.7653700000000001  0.48077999999999993  0.48160000000000003  1.0000
  S   S4        1.0  0.8036  0.38100000000000006  0.00391  1.0000
  S   S5        1.0  0.58819  0.76465  0.060250000000000005  1.0000
  S   S6        1.0  0.65162  0.9492600000000002  0.62364  1.0000
  O   O7        1.0  0.9325  0.4533  0.6236  1.0000
  O   O8        1.0  0.5830999999999997  0.5997  0.6683  1.0000
  O   O9        1.0  0.07229999999999999  0.42439999999999994  0.7502000000000001  1.0000
  O   O10       1.0  0.7633000000000001  0.7073  0.5177  1.0000
  O   O11       1.0  0.35190000000000005  0.6917000000000001  0.33420000000000005  1.0000
  O   O12       1.0  0.5466  0.6048  0.40490000000000004  1.0000
  C   C10       1.0  0.5865  0.9874000000000002  0.48260000000000003  1.0000
  H   H13       1.0  0.6241000000000001  0.9188999999999999  0.43490000000000006  1.0000
  H   H14       1.0  0.6339  0.05969999999999999  0.4269  1.0000
  C   C11       1.0  0.794  0.3997  0.8454  1.0000
  H   H15       1.0  0.7115  0.46659999999999996  0.8373000000000002  1.0000
  H   H16       1.0  0.7618  0.32450000000000007  0.8372  1.0000
  C   C12       1.0  0.6189  0.6021  0.0471  1.0000
  H   H17       1.0  0.5810999999999996  0.5930000000000001  0.9802  1.0000
  H   H18       1.0  0.5547999999999998  0.5573  0.12740000000000004  1.0000
  C   C13       1.0  0.7895  0.5423  0.017200000000000003  1.0000
  H   H19       1.0  0.8554000000000002  0.5861999999999999  0.9372000000000001  1.0000
  H   H20       1.0  0.828  0.548  0.0849  1.0000
  C   C14       1.0  0.6080000000000001  0.7569  0.2148  1.0000
  H   H21       1.0  0.5916000000000001  0.8404000000000001  0.23310000000000003  1.0000
  H   H22       1.0  0.7153999999999999  0.7224999999999998  0.21  1.0000
  C   C15       1.0  0.5844  0.8038  0.698  1.0000
  H   H23       1.0  0.4699999999999999  0.8143  0.7217000000000001  1.0000
  H   H24       1.0  0.6089000000000001  0.7791  0.7770000000000001  1.0000
  C   C16       1.0  0.944  0.4267000000000001  0.7346  1.0000
  C   C17       1.0  0.6495999999999997  0.6978999999999999  0.6215  1.0000
  C   C18       1.0  0.49399999999999994  0.68  0.3246  1.0000
