data_image0
_chemical_formula_structural       Ca2S2O4COCOC2OC2HC2HCHOCHC2Ca2S2O4COCOC2OC2HC2HCHOCHC2Ca2S2O4COCOC2OC2HC2HCHOCHC2Ca2S2O4COCOC2OC2HC2HCHOCHC2
_chemical_formula_sum              "Ca8 S8 O32 C48 H16"
_cell_length_a       10.0704
_cell_length_b       14.2521
_cell_length_c       17.5644
_cell_angle_alpha    90.0
_cell_angle_beta     94.281
_cell_angle_gamma    90.0

_space_group_name_H-M_alt    "P 1"
_space_group_IT_number       1

loop_
  _space_group_symop_operation_xyz
  'x, y, z'

loop_
  _atom_site_type_symbol
  _atom_site_label
  _atom_site_symmetry_multiplicity
  _atom_site_fract_x
  _atom_site_fract_y
  _atom_site_fract_z
  _atom_site_occupancy
  Ca  Ca1       1.0  0.52837  0.10558999999999998  0.55831  1.0000
  Ca  Ca2       1.0  0.4082799999999999  0.34702  0.53009  1.0000
  S   S1        1.0  0.28004  0.25166  0.30207999999999996  1.0000
  S   S2        1.0  0.18623  0.06599  0.74929  1.0000
  O   O1        1.0  0.4157  0.20430999999999994  0.45473  1.0000
  O   O2        1.0  0.4269  0.052089999999999984  0.43534  1.0000
  O   O3        1.0  0.07469999999999999  0.23230999999999996  0.10501999999999997  1.0000
  O   O4        1.0  0.05679999999999999  0.09606999999999997  0.9518099999999999  1.0000
  C   C1        1.0  0.3148  0.14307999999999996  0.33975  1.0000
  O   O5        1.0  0.0965  0.9693699999999997  0.88455  1.0000
  C   C2        1.0  0.3905  0.13301999999999997  0.4141  1.0000
  O   O6        1.0  0.3266  0.10931999999999997  0.61072  1.0000
  C   C3        1.0  0.1914  0.2036  0.22468  1.0000
  C   C4        1.0  0.1324  0.2667  0.16487  1.0000
  O   O7        1.0  0.143  0.35331  0.17565  1.0000
  C   C5        1.0  0.21679999999999996  0.1741  0.71116  1.0000
  C   C6        1.0  0.1407  0.21059999999999998  0.8277  1.0000
  H   H1        1.0  0.1181  0.24949999999999994  0.8673  1.0000
  C   C7        1.0  0.1338  0.11579999999999997  0.83039  1.0000
  C   C8        1.0  0.1858  0.2442  0.7586  1.0000
  H   H2        1.0  0.1934  0.3075  0.7469  1.0000
  C   C9        1.0  0.2589  0.07289999999999998  0.29429  1.0000
  H   H3        1.0  0.2674  0.009399999999999997  0.3057  1.0000
  O   O8        1.0  0.2734  0.26155  0.60578  1.0000
  C   C10       1.0  0.1875  0.10799999999999997  0.22855000000000003  1.0000
  H   H4        1.0  0.1427  0.0703  0.1918  1.0000
  C   C11       1.0  0.09069999999999998  0.05579999999999999  0.89355  1.0000
  C   C12       1.0  0.2767  0.18249999999999994  0.63629  1.0000
  Ca  Ca3       1.0  0.97163  0.60559  0.9416899999999999  1.0000
  Ca  Ca4       1.0  0.09172  0.8470199999999998  0.96991  1.0000
  S   S3        1.0  0.21996  0.7516599999999999  0.19791999999999996  1.0000
  S   S4        1.0  0.31376999999999994  0.56599  0.75071  1.0000
  O   O9        1.0  0.0843  0.7043099999999999  0.04527  1.0000
  O   O10       1.0  0.0731  0.5520899999999997  0.06466  1.0000
  O   O11       1.0  0.42530000000000007  0.7323099999999998  0.39498  1.0000
  O   O12       1.0  0.4432  0.59607  0.54819  1.0000
  C   C13       1.0  0.1852  0.64308  0.16025  1.0000
  O   O13       1.0  0.4035  0.4693699999999999  0.61545  1.0000
  C   C14       1.0  0.10949999999999999  0.6330199999999998  0.0859  1.0000
  O   O14       1.0  0.1734  0.6093199999999998  0.88928  1.0000
  C   C15       1.0  0.3086  0.7036  0.27531999999999995  1.0000
  C   C16       1.0  0.3676  0.7666999999999998  0.33513  1.0000
  O   O15       1.0  0.357  0.8533099999999998  0.32435  1.0000
  C   C17       1.0  0.2832  0.6741  0.78884  1.0000
  C   C18       1.0  0.35929999999999995  0.7105999999999998  0.6722999999999998  1.0000
  H   H5        1.0  0.38189999999999996  0.7494999999999998  0.6326999999999998  1.0000
  C   C19       1.0  0.36619999999999997  0.6158  0.66961  1.0000
  C   C20       1.0  0.3141999999999999  0.7441999999999999  0.7413999999999997  1.0000
  H   H6        1.0  0.3066  0.8075  0.7531  1.0000
  C   C21       1.0  0.24110000000000004  0.5729  0.20571  1.0000
  H   H7        1.0  0.2326  0.5094  0.1943  1.0000
  O   O16       1.0  0.22659999999999997  0.76155  0.89422  1.0000
  C   C22       1.0  0.31250000000000006  0.608  0.27145  1.0000
  H   H8        1.0  0.3573  0.5702999999999998  0.3082  1.0000
  C   C23       1.0  0.4093  0.5558  0.60645  1.0000
  C   C24       1.0  0.22329999999999994  0.6825  0.8637099999999999  1.0000
  Ca  Ca5       1.0  0.47163  0.8944099999999998  0.44169  1.0000
  Ca  Ca6       1.0  0.59172  0.6529799999999998  0.46991  1.0000
  S   S5        1.0  0.71996  0.7483399999999998  0.69792  1.0000
  S   S6        1.0  0.81377  0.9340099999999999  0.25071  1.0000
  O   O17       1.0  0.5842999999999999  0.7956899999999998  0.54527  1.0000
  O   O18       1.0  0.5730999999999998  0.9479099999999999  0.5646599999999998  1.0000
  O   O19       1.0  0.9253  0.7676899999999998  0.89498  1.0000
  O   O20       1.0  0.9432  0.90393  0.04819  1.0000
  C   C25       1.0  0.6852  0.85692  0.66025  1.0000
  O   O21       1.0  0.9035  0.03063  0.11545  1.0000
  C   C26       1.0  0.6095  0.8669799999999999  0.5859  1.0000
  O   O22       1.0  0.6734  0.8906799999999998  0.38928  1.0000
  C   C27       1.0  0.8086  0.7964  0.77532  1.0000
  C   C28       1.0  0.8675999999999999  0.7332999999999997  0.83513  1.0000
  O   O23       1.0  0.857  0.64669  0.82435  1.0000
  C   C29       1.0  0.7832  0.8259  0.28884  1.0000
  C   C30       1.0  0.8593  0.7893999999999998  0.1723  1.0000
  H   H9        1.0  0.8819  0.7504999999999997  0.1327  1.0000
  C   C31       1.0  0.8661999999999999  0.8841999999999998  0.16961  1.0000
  C   C32       1.0  0.8142  0.7557999999999998  0.2414  1.0000
  H   H10       1.0  0.8066  0.6925  0.2531  1.0000
  C   C33       1.0  0.7411  0.9271  0.70571  1.0000
  H   H11       1.0  0.7326  0.9905999999999998  0.6943  1.0000
  O   O24       1.0  0.7266  0.73845  0.39421999999999996  1.0000
  C   C34       1.0  0.8125  0.8919999999999998  0.77145  1.0000
  H   H12       1.0  0.8573  0.9296999999999997  0.8082  1.0000
  C   C35       1.0  0.9093  0.9441999999999998  0.10645  1.0000
  C   C36       1.0  0.7233  0.8175  0.36371  1.0000
  Ca  Ca7       1.0  0.028369999999999996  0.39441  0.05831  1.0000
  Ca  Ca8       1.0  0.9082799999999999  0.15298  0.030089999999999995  1.0000
  S   S7        1.0  0.7800399999999998  0.24833999999999995  0.80208  1.0000
  S   S8        1.0  0.68623  0.4340099999999999  0.24928999999999998  1.0000
  O   O25       1.0  0.9156999999999998  0.2956899999999999  0.9547299999999999  1.0000
  O   O26       1.0  0.9269  0.44790999999999986  0.93534  1.0000
  O   O27       1.0  0.5746999999999999  0.26769  0.60502  1.0000
  O   O28       1.0  0.5568  0.4039299999999999  0.4518099999999999  1.0000
  C   C37       1.0  0.8148  0.3569199999999999  0.8397499999999999  1.0000
  O   O29       1.0  0.5964999999999998  0.53063  0.38455  1.0000
  C   C38       1.0  0.8905  0.36697999999999986  0.9141  1.0000
  O   O30       1.0  0.8266  0.39068  0.11072  1.0000
  C   C39       1.0  0.6914  0.2963999999999999  0.72468  1.0000
  C   C40       1.0  0.6323999999999999  0.23329999999999995  0.66487  1.0000
  O   O31       1.0  0.6429999999999998  0.14668999999999993  0.67565  1.0000
  C   C41       1.0  0.7168  0.3259  0.21116  1.0000
  C   C42       1.0  0.6407  0.2894  0.3277  1.0000
  H   H13       1.0  0.6181  0.2505  0.3673  1.0000
  C   C43       1.0  0.6338  0.3842  0.33039  1.0000
  C   C44       1.0  0.6858  0.25579999999999997  0.2586  1.0000
  H   H14       1.0  0.6934  0.1925  0.2469  1.0000
  C   C45       1.0  0.7589  0.42709999999999987  0.79429  1.0000
  H   H15       1.0  0.7674  0.49059999999999987  0.8056999999999999  1.0000
  O   O32       1.0  0.7734  0.23844999999999994  0.10578  1.0000
  C   C46       1.0  0.6874999999999999  0.3919999999999999  0.72855  1.0000
  H   H16       1.0  0.6426999999999999  0.4297  0.6917999999999999  1.0000
  C   C47       1.0  0.5907  0.44419999999999993  0.39354999999999996  1.0000
  C   C48       1.0  0.7767  0.3175  0.13629  1.0000
