data_image0
_chemical_formula_structural       ZnCaC2HC2HC2HC6HCHCHC2O9ZnCaC2HC2HC2HC6HCHCHC2O9ZnCaC2HC2HC2HC6HCHCHC2O9ZnCaC2HC2HC2HC6HCHCHC2O9
_chemical_formula_sum              "Zn4 Ca4 C64 H24 O36"
_cell_length_a       11.1577
_cell_length_b       17.4945
_cell_length_c       13.0419
_cell_angle_alpha    90.0
_cell_angle_beta     102.31599999999999
_cell_angle_gamma    90.0

_symmetry_space_group_name_H-M    'P 1'
_symmetry_Int_Tables_number       1

loop_
  _symmetry_equiv_pos_as_xyz
  'x,y,z'

loop_
  _atom_site_type_symbol
  _atom_site_label
  _atom_site_symmetry_multiplicity
  _atom_site_fract_x
  _atom_site_fract_y
  _atom_site_fract_z
  _atom_site_occupancy
  Zn  Zn1       1.0  0.3680200000000001  0.94008  0.64536  1.0000
  Ca  Ca1       1.0  0.44625  0.13179  0.57441  1.0000
  C   C1        1.0  0.7450000000000002  0.90037  0.1523  1.0000
  C   C2        1.0  0.7841000000000002  0.82497  0.1559  1.0000
  H   H1        1.0  0.7888000000000001  0.7966  0.21690000000000004  1.0000
  C   C3        1.0  0.8162  0.79154  0.0691  1.0000
  C   C4        1.0  0.8086  0.8336  0.9772  1.0000
  H   H2        1.0  0.8312000000000002  0.8119  0.919  1.0000
  C   C5        1.0  0.7669000000000001  0.9083  0.9741  1.0000
  C   C6        1.0  0.7363000000000001  0.94215  0.0607  1.0000
  H   H3        1.0  0.7101  0.9927  0.05759999999999999  1.0000
  C   C7        1.0  0.705  0.93558  0.24519999999999997  1.0000
  C   C8        1.0  0.8542  0.7085  0.0731  1.0000
  C   C9        1.0  0.8149000000000002  0.9529500000000001  0.8111  1.0000
  C   C10       1.0  0.7544  0.97197  0.71  1.0000
  C   C11       1.0  0.8237  0.9837000000000001  0.6338  1.0000
  C   C12       1.0  0.9507999999999999  0.9761000000000001  0.66  1.0000
  H   H4        1.0  0.997  0.9846000000000001  0.6096  1.0000
  C   C13       1.0  0.008000000000000035  0.9560000000000001  0.7608  1.0000
  H   H5        1.0  0.09270000000000003  0.95  0.7775000000000001  1.0000
  C   C14       1.0  0.9409  0.9447  0.8374000000000001  1.0000
  H   H6        1.0  0.9801  0.9317000000000001  0.9054  1.0000
  C   C15       1.0  0.6180000000000001  0.98601  0.6875  1.0000
  C   C16       1.0  0.7621  0.0089  0.5252  1.0000
  O   O1        1.0  0.6813000000000001  0.00662  0.23859999999999998  1.0000
  O   O2        1.0  0.6967000000000001  0.89351  0.32034  1.0000
  O   O3        1.0  0.8354  0.67082  0.15081  1.0000
  O   O4        1.0  0.8987  0.68169  0.0008000000000000001  1.0000
  O   O5        1.0  0.7409  0.9521699999999998  0.8834  1.0000
  O   O6        1.0  0.8186  0.04745  0.4724  1.0000
  O   O7        1.0  0.6499000000000001  0.99084  0.49132  1.0000
  O   O8        1.0  0.5821  0.05302  0.68406  1.0000
  O   O9        1.0  0.5495000000000002  0.9282199999999999  0.6751  1.0000
  Zn  Zn2       1.0  0.13198000000000001  0.44008  0.85464  1.0000
  Ca  Ca2       1.0  0.053750000000000034  0.63179  0.92559  1.0000
  C   C17       1.0  0.7550000000000001  0.40037  0.3477  1.0000
  C   C18       1.0  0.7159  0.32497  0.34409999999999996  1.0000
  H   H7        1.0  0.7112  0.2966  0.2831  1.0000
  C   C19       1.0  0.6838  0.29154  0.4309  1.0000
  C   C20       1.0  0.6914  0.3336  0.5228  1.0000
  H   H8        1.0  0.6688000000000001  0.3119  0.581  1.0000
  C   C21       1.0  0.7331  0.4083  0.5259  1.0000
  C   C22       1.0  0.7637  0.44215  0.4393  1.0000
  H   H9        1.0  0.7899  0.4927000000000001  0.4424  1.0000
  C   C23       1.0  0.7950000000000002  0.43558  0.2548  1.0000
  C   C24       1.0  0.6458  0.2085  0.4269  1.0000
  C   C25       1.0  0.6851  0.45295  0.6889  1.0000
  C   C26       1.0  0.7456000000000002  0.47197  0.79  1.0000
  C   C27       1.0  0.6763  0.4837  0.8662  1.0000
  C   C28       1.0  0.5492  0.4761000000000001  0.84  1.0000
  H   H10       1.0  0.503  0.4846  0.8904  1.0000
  C   C29       1.0  0.492  0.456  0.7392  1.0000
  H   H11       1.0  0.4073  0.45  0.7225  1.0000
  C   C30       1.0  0.5591  0.4447  0.6626  1.0000
  H   H12       1.0  0.5199  0.4317  0.5946  1.0000
  C   C31       1.0  0.882  0.48601  0.8125  1.0000
  C   C32       1.0  0.7379  0.5089  0.9748  1.0000
  O   O10       1.0  0.8187  0.50662  0.2614  1.0000
  O   O11       1.0  0.8033  0.39351  0.17966000000000001  1.0000
  O   O12       1.0  0.6646  0.17082  0.34919  1.0000
  O   O13       1.0  0.6013  0.18169  0.49920000000000003  1.0000
  O   O14       1.0  0.7591  0.45217  0.6166  1.0000
  O   O15       1.0  0.6814  0.54745  0.0276  1.0000
  O   O16       1.0  0.8501000000000001  0.49084  0.00868  1.0000
  O   O17       1.0  0.9179000000000002  0.55302  0.81594  1.0000
  O   O18       1.0  0.9505000000000002  0.42822  0.8249  1.0000
  Zn  Zn3       1.0  0.63198  0.05992000000000001  0.35464  1.0000
  Ca  Ca3       1.0  0.5537500000000001  0.86821  0.4255900000000001  1.0000
  C   C33       1.0  0.255  0.09963  0.8477  1.0000
  C   C34       1.0  0.2159  0.17503  0.8441  1.0000
  H   H13       1.0  0.2112  0.2034  0.7831  1.0000
  C   C35       1.0  0.18380000000000002  0.20846  0.9309  1.0000
  C   C36       1.0  0.1914  0.1664  0.0228  1.0000
  H   H14       1.0  0.1688  0.1881  0.08100000000000002  1.0000
  C   C37       1.0  0.2331  0.0917  0.0259  1.0000
  C   C38       1.0  0.2637  0.05785  0.9393000000000001  1.0000
  H   H15       1.0  0.2899  0.0073  0.9424  1.0000
  C   C39       1.0  0.295  0.06442  0.7548  1.0000
  C   C40       1.0  0.14580000000000004  0.2915  0.9269  1.0000
  C   C41       1.0  0.18510000000000001  0.04705  0.18890000000000004  1.0000
  C   C42       1.0  0.2456  0.02803  0.29  1.0000
  C   C43       1.0  0.1763  0.0163  0.3662  1.0000
  C   C44       1.0  0.04920000000000001  0.0239  0.34  1.0000
  H   H16       1.0  0.003000000000000013  0.015399999999999999  0.3904000000000001  1.0000
  C   C45       1.0  0.992  0.044  0.2392  1.0000
  H   H17       1.0  0.9073  0.05  0.2225  1.0000
  C   C46       1.0  0.059100000000000014  0.0553  0.16260000000000002  1.0000
  H   H18       1.0  0.019900000000000004  0.0683  0.09460000000000002  1.0000
  C   C47       1.0  0.382  0.01399  0.3125  1.0000
  C   C48       1.0  0.23790000000000003  0.9911  0.4748  1.0000
  O   O19       1.0  0.3187  0.9933800000000002  0.7614  1.0000
  O   O20       1.0  0.3033  0.10649  0.67966  1.0000
  O   O21       1.0  0.1646  0.32918  0.84919  1.0000
  O   O22       1.0  0.10130000000000002  0.31831  0.9992  1.0000
  O   O23       1.0  0.25910000000000005  0.04783  0.1166  1.0000
  O   O24       1.0  0.1814  0.95255  0.5276  1.0000
  O   O25       1.0  0.3501  0.00916  0.50868  1.0000
  O   O26       1.0  0.41790000000000005  0.9469800000000002  0.31594  1.0000
  O   O27       1.0  0.4505000000000001  0.07178  0.32489999999999997  1.0000
  Zn  Zn4       1.0  0.86802  0.55992  0.14536  1.0000
  Ca  Ca4       1.0  0.9462500000000003  0.36821  0.07441  1.0000
  C   C49       1.0  0.24500000000000002  0.59963  0.6523000000000001  1.0000
  C   C50       1.0  0.2841  0.67503  0.6559  1.0000
  H   H19       1.0  0.28880000000000006  0.7034  0.7169  1.0000
  C   C51       1.0  0.31620000000000004  0.70846  0.5691  1.0000
  C   C52       1.0  0.3086  0.6664  0.47719999999999996  1.0000
  H   H20       1.0  0.33120000000000005  0.6881  0.41900000000000004  1.0000
  C   C53       1.0  0.2669  0.5917  0.4741000000000001  1.0000
  C   C54       1.0  0.23630000000000004  0.55785  0.5607  1.0000
  H   H21       1.0  0.2101  0.5073  0.5576  1.0000
  C   C55       1.0  0.20500000000000002  0.56442  0.7452  1.0000
  C   C56       1.0  0.3542000000000001  0.7915  0.5731  1.0000
  C   C57       1.0  0.31490000000000007  0.54705  0.3111  1.0000
  C   C58       1.0  0.2544  0.52803  0.21  1.0000
  C   C59       1.0  0.3237  0.5163  0.1338  1.0000
  C   C60       1.0  0.45080000000000003  0.5239  0.16  1.0000
  H   H22       1.0  0.497  0.5154  0.1096  1.0000
  C   C61       1.0  0.5080000000000001  0.544  0.2608  1.0000
  H   H23       1.0  0.5927000000000001  0.55  0.2775  1.0000
  C   C62       1.0  0.44090000000000007  0.5553  0.3374  1.0000
  H   H24       1.0  0.4801  0.5683  0.4054  1.0000
  C   C63       1.0  0.118  0.51399  0.1875  1.0000
  C   C64       1.0  0.2621  0.4910999999999999  0.0252  1.0000
  O   O28       1.0  0.18130000000000004  0.49338  0.7386000000000001  1.0000
  O   O29       1.0  0.1967  0.60649  0.82034  1.0000
  O   O30       1.0  0.33540000000000003  0.82918  0.6508100000000001  1.0000
  O   O31       1.0  0.3987  0.81831  0.5008  1.0000
  O   O32       1.0  0.2409  0.54783  0.3834  1.0000
  O   O33       1.0  0.3186  0.45255  0.9724  1.0000
  O   O34       1.0  0.1499  0.50916  0.99132  1.0000
  O   O35       1.0  0.08210000000000002  0.44698  0.18405999999999997  1.0000
  O   O36       1.0  0.049500000000000016  0.57178  0.1751  1.0000
