data_image0
_chemical_formula_structural       P2SCH2CH2CH2CH2CH2CH2NHNHO9P2SCH2CH2CH2CH2CH2CH2NHNHO9P2SCH2CH2CH2CH2CH2CH2NHNHO9P2SCH2CH2CH2CH2CH2CH2NHNHO9P2SCH2CH2CH2CH2CH2CH2NHNHO9P2SCH2CH2CH2CH2CH2CH2NHNHO9P2SCH2CH2CH2CH2CH2CH2NHNHO9P2SCH2CH2CH2CH2CH2CH2NHNHO9Nd5PC2HCHCHC2HO2NdPC2HCHCHC2HO2NdPC2HCHCHC2HO2NdPC2HCHCHC2HO2
_chemical_formula_sum              "P20 S8 C72 H128 N16 O80 Nd8"
_cell_length_a       14.303
_cell_length_b       18.7159
_cell_length_c       17.0511
_cell_angle_alpha    90.0
_cell_angle_beta     102.118
_cell_angle_gamma    90.0

_symmetry_space_group_name_H-M    'P 1'
_symmetry_Int_Tables_number       1

loop_
  _symmetry_equiv_pos_as_xyz
  'x,y,z'

loop_
  _atom_site_type_symbol
  _atom_site_label
  _atom_site_symmetry_multiplicity
  _atom_site_fract_x
  _atom_site_fract_y
  _atom_site_fract_z
  _atom_site_occupancy
  P   P1        1.0  0.50998  0.66327  0.3097399999999999  1.0000
  P   P2        1.0  0.72302  0.75539  0.50144  1.0000
  S   S1        1.0  0.007300000000000008  0.5302999999999999  0.7036  1.0000
  C   C1        1.0  0.7089000000000002  0.8136  0.2747999999999999  1.0000
  H   H1        1.0  0.6985000000000002  0.8458999999999999  0.3166  1.0000
  H   H2        1.0  0.6762000000000002  0.833  0.22359999999999994  1.0000
  C   C2        1.0  0.6848000000000001  0.6913  0.2235  1.0000
  H   H3        1.0  0.6512000000000002  0.7078  0.17119999999999994  1.0000
  H   H4        1.0  0.6603000000000002  0.6443999999999999  0.2328  1.0000
  C   C3        1.0  0.5639000000000002  0.7487  0.2893  1.0000
  H   H5        1.0  0.5293  0.7670999999999999  0.23829999999999996  1.0000
  H   H6        1.0  0.5570000000000003  0.7827999999999999  0.3305  1.0000
  C   C4        1.0  0.7989999999999999  0.6865  0.7370999999999999  1.0000
  H   H7        1.0  0.865  0.7024  0.7494999999999998  1.0000
  H   H8        1.0  0.7986000000000001  0.6363  0.7227  1.0000
  C   C5        1.0  0.7435  0.8052  0.6891999999999998  1.0000
  H   H9        1.0  0.7056  0.8317999999999999  0.6449  1.0000
  H   H10       1.0  0.808  0.8241  0.6998999999999999  1.0000
  C   C6        1.0  0.7877000000000002  0.7153  0.5946999999999998  1.0000
  H   H11       1.0  0.7912000000000002  0.6641  0.5866  1.0000
  H   H12       1.0  0.8525  0.7336  0.6058999999999998  1.0000
  N   N1        1.0  0.6679  0.7421999999999999  0.2869  1.0000
  H   H13       1.0  0.6993000000000003  0.7251  0.3352999999999999  1.0000
  N   N2        1.0  0.7451  0.7282  0.6673  1.0000
  H   H14       1.0  0.6837000000000002  0.712  0.6558999999999998  1.0000
  O   O1        1.0  0.4677  0.6299  0.23029999999999995  1.0000
  O   O2        1.0  0.4364  0.6849999999999999  0.3594  1.0000
  O   O3        1.0  0.5882000000000002  0.6207  0.3635  1.0000
  O   O4        1.0  0.7416000000000001  0.8356  0.5060999999999998  1.0000
  O   O5        1.0  0.7665000000000002  0.7194  0.4378999999999999  1.0000
  O   O6        1.0  0.6178  0.7395  0.4963  1.0000
  O   O7        1.0  0.6292  0.5655  0.525  1.0000
  O   O8        1.0  0.9940000000000001  0.6021999999999998  0.6704  1.0000
  O   O9        1.0  0.060999999999999964  0.5454  0.7772999999999998  1.0000
  P   P3        1.0  0.009979999999999994  0.16327  0.80974  1.0000
  P   P4        1.0  0.22302000000000005  0.25539  0.00144  1.0000
  S   S2        1.0  0.5073  0.030299999999999997  0.2036  1.0000
  C   C7        1.0  0.2089  0.3136  0.7747999999999998  1.0000
  H   H15       1.0  0.1985  0.3458999999999999  0.8165999999999998  1.0000
  H   H16       1.0  0.1762  0.3329999999999999  0.7236  1.0000
  C   C8        1.0  0.18480000000000002  0.1913  0.7234999999999998  1.0000
  H   H17       1.0  0.15120000000000006  0.20779999999999998  0.6712  1.0000
  H   H18       1.0  0.1603  0.1444  0.7327999999999998  1.0000
  C   C9        1.0  0.06389999999999998  0.24869999999999998  0.7893  1.0000
  H   H19       1.0  0.0293  0.26709999999999995  0.7383  1.0000
  H   H20       1.0  0.05700000000000004  0.28279999999999994  0.8305  1.0000
  C   C10       1.0  0.299  0.1865  0.2371  1.0000
  H   H21       1.0  0.3650000000000001  0.20239999999999997  0.2495  1.0000
  H   H22       1.0  0.2986  0.1363  0.2227  1.0000
  C   C11       1.0  0.24350000000000005  0.3051999999999999  0.18919999999999995  1.0000
  H   H23       1.0  0.20560000000000003  0.3318  0.1449  1.0000
  H   H24       1.0  0.3080000000000001  0.3241  0.1999  1.0000
  C   C12       1.0  0.2877  0.21529999999999996  0.0947  1.0000
  H   H25       1.0  0.2912  0.1641  0.0866  1.0000
  H   H26       1.0  0.3525000000000002  0.2336  0.1059  1.0000
  N   N3        1.0  0.1679  0.24219999999999997  0.7869  1.0000
  H   H27       1.0  0.19930000000000006  0.2251  0.8353  1.0000
  N   N4        1.0  0.24510000000000007  0.2282  0.1673  1.0000
  H   H28       1.0  0.1837  0.212  0.15589999999999996  1.0000
  O   O10       1.0  0.9677000000000001  0.1299  0.7302999999999997  1.0000
  O   O11       1.0  0.9364  0.185  0.8594  1.0000
  O   O12       1.0  0.08819999999999996  0.1207  0.8634999999999998  1.0000
  O   O13       1.0  0.2416  0.3355999999999999  0.006099999999999999  1.0000
  O   O14       1.0  0.2665  0.2194  0.9378999999999997  1.0000
  O   O15       1.0  0.11780000000000003  0.23949999999999996  0.9963  1.0000
  O   O16       1.0  0.1292  0.0655  0.025  1.0000
  O   O17       1.0  0.49400000000000005  0.1022  0.1704  1.0000
  O   O18       1.0  0.561  0.0454  0.2772999999999999  1.0000
  P   P5        1.0  0.4900200000000001  0.66327  0.6902599999999998  1.0000
  P   P6        1.0  0.27698  0.75539  0.49856  1.0000
  S   S3        1.0  0.9927000000000001  0.5302999999999999  0.2963999999999999  1.0000
  C   C13       1.0  0.2911000000000001  0.8136  0.7252  1.0000
  H   H29       1.0  0.30150000000000005  0.8458999999999999  0.6834  1.0000
  H   H30       1.0  0.3238  0.833  0.7763999999999998  1.0000
  C   C14       1.0  0.3152  0.6913  0.7765  1.0000
  H   H31       1.0  0.3488  0.7078  0.8287999999999998  1.0000
  H   H32       1.0  0.3397000000000001  0.6443999999999999  0.7672  1.0000
  C   C15       1.0  0.43609999999999993  0.7487  0.7106999999999998  1.0000
  H   H33       1.0  0.47070000000000006  0.7670999999999999  0.7616999999999998  1.0000
  H   H34       1.0  0.4430000000000001  0.7827999999999999  0.6695  1.0000
  C   C16       1.0  0.201  0.6865  0.2629  1.0000
  H   H35       1.0  0.13500000000000004  0.7024  0.2505  1.0000
  H   H36       1.0  0.2014  0.6363  0.2772999999999999  1.0000
  C   C17       1.0  0.25650000000000006  0.8052  0.3107999999999999  1.0000
  H   H37       1.0  0.29439999999999994  0.8317999999999999  0.3550999999999999  1.0000
  H   H38       1.0  0.19200000000000006  0.8241  0.3001  1.0000
  C   C18       1.0  0.21230000000000002  0.7153  0.4052999999999999  1.0000
  H   H39       1.0  0.20880000000000004  0.6641  0.4133999999999999  1.0000
  H   H40       1.0  0.1475  0.7336  0.3941  1.0000
  N   N5        1.0  0.3321  0.7421999999999999  0.7131  1.0000
  H   H41       1.0  0.3006999999999999  0.7251  0.6646999999999997  1.0000
  N   N6        1.0  0.2549  0.7282  0.3327  1.0000
  H   H42       1.0  0.31630000000000014  0.712  0.3440999999999999  1.0000
  O   O19       1.0  0.5323000000000001  0.6299  0.7697  1.0000
  O   O20       1.0  0.5636000000000001  0.6849999999999999  0.6406  1.0000
  O   O21       1.0  0.4118  0.6207  0.6365  1.0000
  O   O22       1.0  0.2584  0.8356  0.4939  1.0000
  O   O23       1.0  0.23350000000000007  0.7194  0.5621  1.0000
  O   O24       1.0  0.3822000000000001  0.7395  0.5037  1.0000
  O   O25       1.0  0.3708000000000001  0.5655  0.475  1.0000
  O   O26       1.0  0.005999999999999997  0.6021999999999998  0.3296  1.0000
  O   O27       1.0  0.9390000000000002  0.5454  0.2227  1.0000
  P   P7        1.0  0.9900200000000001  0.16327  0.19025999999999996  1.0000
  P   P8        1.0  0.7769800000000001  0.25539  0.9985599999999999  1.0000
  S   S4        1.0  0.49270000000000014  0.030299999999999997  0.7963999999999998  1.0000
  C   C19       1.0  0.7911  0.3136  0.22519999999999996  1.0000
  H   H43       1.0  0.8015  0.3458999999999999  0.1834  1.0000
  H   H44       1.0  0.8238  0.3329999999999999  0.2764  1.0000
  C   C20       1.0  0.8152  0.1913  0.27649999999999997  1.0000
  H   H45       1.0  0.8488000000000002  0.20779999999999998  0.3288  1.0000
  H   H46       1.0  0.8397  0.1444  0.26719999999999994  1.0000
  C   C21       1.0  0.9361000000000003  0.24869999999999998  0.2107  1.0000
  H   H47       1.0  0.9707000000000002  0.26709999999999995  0.2617  1.0000
  H   H48       1.0  0.9430000000000002  0.28279999999999994  0.16949999999999996  1.0000
  C   C22       1.0  0.7010000000000002  0.1865  0.7629  1.0000
  H   H49       1.0  0.6350000000000001  0.20239999999999997  0.7505  1.0000
  H   H50       1.0  0.7014  0.1363  0.7772999999999998  1.0000
  C   C23       1.0  0.7565000000000002  0.3051999999999999  0.8108  1.0000
  H   H51       1.0  0.7944000000000001  0.3318  0.8550999999999997  1.0000
  H   H52       1.0  0.6920000000000001  0.3241  0.8001  1.0000
  C   C24       1.0  0.7123  0.21529999999999996  0.9053  1.0000
  H   H53       1.0  0.7088  0.1641  0.9133999999999998  1.0000
  H   H54       1.0  0.6475  0.2336  0.8941  1.0000
  N   N7        1.0  0.8321000000000002  0.24219999999999997  0.2131  1.0000
  H   H55       1.0  0.8007000000000002  0.2251  0.16469999999999996  1.0000
  N   N8        1.0  0.7549  0.2282  0.8326999999999998  1.0000
  H   H56       1.0  0.8163000000000002  0.212  0.8441  1.0000
  O   O28       1.0  0.032299999999999975  0.1299  0.2696999999999999  1.0000
  O   O29       1.0  0.0636  0.185  0.14059999999999995  1.0000
  O   O30       1.0  0.9118000000000003  0.1207  0.1365  1.0000
  O   O31       1.0  0.7584  0.3355999999999999  0.9938999999999999  1.0000
  O   O32       1.0  0.7335000000000003  0.2194  0.062099999999999995  1.0000
  O   O33       1.0  0.8822000000000002  0.23949999999999996  0.0036999999999999993  1.0000
  O   O34       1.0  0.8708000000000002  0.0655  0.975  1.0000
  O   O35       1.0  0.506  0.1022  0.8296  1.0000
  O   O36       1.0  0.4390000000000001  0.0454  0.7227  1.0000
  P   P9        1.0  0.4900200000000001  0.33672999999999986  0.6902599999999998  1.0000
  P   P10       1.0  0.27698  0.24461  0.49856  1.0000
  S   S5        1.0  0.9927000000000001  0.4697  0.2963999999999999  1.0000
  C   C25       1.0  0.2911000000000001  0.1864  0.7252  1.0000
  H   H57       1.0  0.30150000000000005  0.1541  0.6834  1.0000
  H   H58       1.0  0.3238  0.16699999999999998  0.7763999999999998  1.0000
  C   C26       1.0  0.3152  0.3087  0.7765  1.0000
  H   H59       1.0  0.3488  0.2922  0.8287999999999998  1.0000
  H   H60       1.0  0.3397000000000001  0.35559999999999997  0.7672  1.0000
  C   C27       1.0  0.43609999999999993  0.2513  0.7106999999999998  1.0000
  H   H61       1.0  0.47070000000000006  0.2329  0.7616999999999998  1.0000
  H   H62       1.0  0.4430000000000001  0.2172  0.6695  1.0000
  C   C28       1.0  0.201  0.3135  0.2629  1.0000
  H   H63       1.0  0.13500000000000004  0.2976  0.2505  1.0000
  H   H64       1.0  0.2014  0.3637  0.2772999999999999  1.0000
  C   C29       1.0  0.25650000000000006  0.19479999999999997  0.3107999999999999  1.0000
  H   H65       1.0  0.29439999999999994  0.1682  0.3550999999999999  1.0000
  H   H66       1.0  0.19200000000000006  0.17589999999999997  0.3001  1.0000
  C   C30       1.0  0.21230000000000002  0.2847  0.4052999999999999  1.0000
  H   H67       1.0  0.20880000000000004  0.3359  0.4133999999999999  1.0000
  H   H68       1.0  0.1475  0.2664  0.3941  1.0000
  N   N9        1.0  0.3321  0.2578  0.7131  1.0000
  H   H69       1.0  0.3006999999999999  0.2749  0.6646999999999997  1.0000
  N   N10       1.0  0.2549  0.2718  0.3327  1.0000
  H   H70       1.0  0.31630000000000014  0.288  0.3440999999999999  1.0000
  O   O37       1.0  0.5323000000000001  0.3700999999999999  0.7697  1.0000
  O   O38       1.0  0.5636000000000001  0.3149999999999999  0.6406  1.0000
  O   O39       1.0  0.4118  0.37929999999999997  0.6365  1.0000
  O   O40       1.0  0.2584  0.1644  0.4939  1.0000
  O   O41       1.0  0.23350000000000007  0.2806  0.5621  1.0000
  O   O42       1.0  0.3822000000000001  0.2605  0.5037  1.0000
  O   O43       1.0  0.3708000000000001  0.43449999999999994  0.475  1.0000
  O   O44       1.0  0.005999999999999997  0.3978  0.3296  1.0000
  O   O45       1.0  0.9390000000000002  0.4546  0.2227  1.0000
  P   P11       1.0  0.9900200000000001  0.8367299999999999  0.19025999999999996  1.0000
  P   P12       1.0  0.7769800000000001  0.74461  0.9985599999999999  1.0000
  S   S6        1.0  0.49270000000000014  0.9696999999999999  0.7963999999999998  1.0000
  C   C31       1.0  0.7911  0.6864  0.22519999999999996  1.0000
  H   H71       1.0  0.8015  0.6541  0.1834  1.0000
  H   H72       1.0  0.8238  0.6669999999999999  0.2764  1.0000
  C   C32       1.0  0.8152  0.8087  0.27649999999999997  1.0000
  H   H73       1.0  0.8488000000000002  0.7921999999999998  0.3288  1.0000
  H   H74       1.0  0.8397  0.8555999999999999  0.26719999999999994  1.0000
  C   C33       1.0  0.9361000000000003  0.7512999999999997  0.2107  1.0000
  H   H75       1.0  0.9707000000000002  0.7329  0.2617  1.0000
  H   H76       1.0  0.9430000000000002  0.7172  0.16949999999999996  1.0000
  C   C34       1.0  0.7010000000000002  0.8134999999999999  0.7629  1.0000
  H   H77       1.0  0.6350000000000001  0.7976  0.7505  1.0000
  H   H78       1.0  0.7014  0.8637  0.7772999999999998  1.0000
  C   C35       1.0  0.7565000000000002  0.6947999999999999  0.8108  1.0000
  H   H79       1.0  0.7944000000000001  0.6682  0.8550999999999997  1.0000
  H   H80       1.0  0.6920000000000001  0.6759  0.8001  1.0000
  C   C36       1.0  0.7123  0.7846999999999998  0.9053  1.0000
  H   H81       1.0  0.7088  0.8359  0.9133999999999998  1.0000
  H   H82       1.0  0.6475  0.7663999999999999  0.8941  1.0000
  N   N11       1.0  0.8321000000000002  0.7578  0.2131  1.0000
  H   H83       1.0  0.8007000000000002  0.7748999999999998  0.16469999999999996  1.0000
  N   N12       1.0  0.7549  0.7718  0.8326999999999998  1.0000
  H   H84       1.0  0.8163000000000002  0.7879999999999999  0.8441  1.0000
  O   O46       1.0  0.032299999999999975  0.8700999999999999  0.2696999999999999  1.0000
  O   O47       1.0  0.0636  0.815  0.14059999999999995  1.0000
  O   O48       1.0  0.9118000000000003  0.8793  0.1365  1.0000
  O   O49       1.0  0.7584  0.6644  0.9938999999999999  1.0000
  O   O50       1.0  0.7335000000000003  0.7806  0.062099999999999995  1.0000
  O   O51       1.0  0.8822000000000002  0.7604999999999998  0.0036999999999999993  1.0000
  O   O52       1.0  0.8708000000000002  0.9345  0.975  1.0000
  O   O53       1.0  0.506  0.8978  0.8296  1.0000
  O   O54       1.0  0.4390000000000001  0.9546  0.7227  1.0000
  P   P13       1.0  0.50998  0.33672999999999986  0.3097399999999999  1.0000
  P   P14       1.0  0.72302  0.24461  0.50144  1.0000
  S   S7        1.0  0.007300000000000008  0.4697  0.7036  1.0000
  C   C37       1.0  0.7089000000000002  0.1864  0.2747999999999999  1.0000
  H   H85       1.0  0.6985000000000002  0.1541  0.3166  1.0000
  H   H86       1.0  0.6762000000000002  0.16699999999999998  0.22359999999999994  1.0000
  C   C38       1.0  0.6848000000000001  0.3087  0.2235  1.0000
  H   H87       1.0  0.6512000000000002  0.2922  0.17119999999999994  1.0000
  H   H88       1.0  0.6603000000000002  0.35559999999999997  0.2328  1.0000
  C   C39       1.0  0.5639000000000002  0.2513  0.2893  1.0000
  H   H89       1.0  0.5293  0.2329  0.23829999999999996  1.0000
  H   H90       1.0  0.5570000000000003  0.2172  0.3305  1.0000
  C   C40       1.0  0.7989999999999999  0.3135  0.7370999999999999  1.0000
  H   H91       1.0  0.865  0.2976  0.7494999999999998  1.0000
  H   H92       1.0  0.7986000000000001  0.3637  0.7227  1.0000
  C   C41       1.0  0.7435  0.19479999999999997  0.6891999999999998  1.0000
  H   H93       1.0  0.7056  0.1682  0.6449  1.0000
  H   H94       1.0  0.808  0.17589999999999997  0.6998999999999999  1.0000
  C   C42       1.0  0.7877000000000002  0.2847  0.5946999999999998  1.0000
  H   H95       1.0  0.7912000000000002  0.3359  0.5866  1.0000
  H   H96       1.0  0.8525  0.2664  0.6058999999999998  1.0000
  N   N13       1.0  0.6679  0.2578  0.2869  1.0000
  H   H97       1.0  0.6993000000000003  0.2749  0.3352999999999999  1.0000
  N   N14       1.0  0.7451  0.2718  0.6673  1.0000
  H   H98       1.0  0.6837000000000002  0.288  0.6558999999999998  1.0000
  O   O55       1.0  0.4677  0.3700999999999999  0.23029999999999995  1.0000
  O   O56       1.0  0.4364  0.3149999999999999  0.3594  1.0000
  O   O57       1.0  0.5882000000000002  0.37929999999999997  0.3635  1.0000
  O   O58       1.0  0.7416000000000001  0.1644  0.5060999999999998  1.0000
  O   O59       1.0  0.7665000000000002  0.2806  0.4378999999999999  1.0000
  O   O60       1.0  0.6178  0.2605  0.4963  1.0000
  O   O61       1.0  0.6292  0.43449999999999994  0.525  1.0000
  O   O62       1.0  0.9940000000000001  0.3978  0.6704  1.0000
  O   O63       1.0  0.060999999999999964  0.4546  0.7772999999999998  1.0000
  P   P15       1.0  0.009979999999999994  0.8367299999999999  0.80974  1.0000
  P   P16       1.0  0.22302000000000005  0.74461  0.00144  1.0000
  S   S8        1.0  0.5073  0.9696999999999999  0.2036  1.0000
  C   C43       1.0  0.2089  0.6864  0.7747999999999998  1.0000
  H   H99       1.0  0.1985  0.6541  0.8165999999999998  1.0000
  H   H100      1.0  0.1762  0.6669999999999999  0.7236  1.0000
  C   C44       1.0  0.18480000000000002  0.8087  0.7234999999999998  1.0000
  H   H101      1.0  0.15120000000000006  0.7921999999999998  0.6712  1.0000
  H   H102      1.0  0.1603  0.8555999999999999  0.7327999999999998  1.0000
  C   C45       1.0  0.06389999999999998  0.7512999999999997  0.7893  1.0000
  H   H103      1.0  0.0293  0.7329  0.7383  1.0000
  H   H104      1.0  0.05700000000000004  0.7172  0.8305  1.0000
  C   C46       1.0  0.299  0.8134999999999999  0.2371  1.0000
  H   H105      1.0  0.3650000000000001  0.7976  0.2495  1.0000
  H   H106      1.0  0.2986  0.8637  0.2227  1.0000
  C   C47       1.0  0.24350000000000005  0.6947999999999999  0.18919999999999995  1.0000
  H   H107      1.0  0.20560000000000003  0.6682  0.1449  1.0000
  H   H108      1.0  0.3080000000000001  0.6759  0.1999  1.0000
  C   C48       1.0  0.2877  0.7846999999999998  0.0947  1.0000
  H   H109      1.0  0.2912  0.8359  0.0866  1.0000
  H   H110      1.0  0.3525000000000002  0.7663999999999999  0.1059  1.0000
  N   N15       1.0  0.1679  0.7578  0.7869  1.0000
  H   H111      1.0  0.19930000000000006  0.7748999999999998  0.8353  1.0000
  N   N16       1.0  0.24510000000000007  0.7718  0.1673  1.0000
  H   H112      1.0  0.1837  0.7879999999999999  0.15589999999999996  1.0000
  O   O64       1.0  0.9677000000000001  0.8700999999999999  0.7302999999999997  1.0000
  O   O65       1.0  0.9364  0.815  0.8594  1.0000
  O   O66       1.0  0.08819999999999996  0.8793  0.8634999999999998  1.0000
  O   O67       1.0  0.2416  0.6644  0.006099999999999999  1.0000
  O   O68       1.0  0.2665  0.7806  0.9378999999999997  1.0000
  O   O69       1.0  0.11780000000000003  0.7604999999999998  0.9963  1.0000
  O   O70       1.0  0.1292  0.9345  0.025  1.0000
  O   O71       1.0  0.49400000000000005  0.8978  0.1704  1.0000
  O   O72       1.0  0.561  0.9546  0.2772999999999999  1.0000
  Nd  Nd1       1.0  0.5  0.65277  0.4999999999999999  1.0000
  Nd  Nd2       1.0  0.0  0.15277  0.0  1.0000
  Nd  Nd3       1.0  0.5  0.3472299999999999  0.4999999999999999  1.0000
  Nd  Nd4       1.0  0.0  0.8472299999999999  0.0  1.0000
  Nd  Nd5       1.0  0.6431600000000002  0.5  0.39023  1.0000
  P   P17       1.0  0.61953  0.5  0.57575  1.0000
  C   C49       1.0  0.8856  0.5  0.7194999999999998  1.0000
  C   C50       1.0  0.8693000000000002  0.5  0.7961  1.0000
  H   H113      1.0  0.9201000000000003  0.5  0.8403  1.0000
  C   C51       1.0  0.7752  0.5  0.8062999999999998  1.0000
  H   H114      1.0  0.7625000000000002  0.5  0.8575999999999998  1.0000
  C   C52       1.0  0.7000000000000002  0.5  0.7391999999999997  1.0000
  H   H115      1.0  0.6373000000000002  0.5  0.7463  1.0000
  C   C53       1.0  0.7171000000000002  0.5  0.6611  1.0000
  C   C54       1.0  0.8117000000000001  0.5  0.6518999999999999  1.0000
  H   H116      1.0  0.8252000000000003  0.5  0.6009  1.0000
  O   O73       1.0  0.5265000000000002  0.5  0.6024  1.0000
  O   O74       1.0  0.01599999999999995  0.5  0.6269999999999998  1.0000
  Nd  Nd6       1.0  0.14316000000000004  0.0  0.89023  1.0000
  P   P18       1.0  0.11953000000000003  0.0  0.07574999999999997  1.0000
  C   C55       1.0  0.3856000000000001  0.0  0.2195  1.0000
  C   C56       1.0  0.3693  0.0  0.29609999999999986  1.0000
  H   H117      1.0  0.4201  0.0  0.3403  1.0000
  C   C57       1.0  0.2752  0.0  0.3063  1.0000
  H   H118      1.0  0.26250000000000007  0.0  0.35759999999999986  1.0000
  C   C58       1.0  0.20000000000000007  0.0  0.2392  1.0000
  H   H119      1.0  0.13730000000000003  0.0  0.24629999999999996  1.0000
  C   C59       1.0  0.21710000000000004  0.0  0.1611  1.0000
  C   C60       1.0  0.3117000000000001  0.0  0.1519  1.0000
  H   H120      1.0  0.3252000000000001  0.0  0.10089999999999998  1.0000
  O   O75       1.0  0.026500000000000006  0.0  0.1024  1.0000
  O   O76       1.0  0.516  0.0  0.12699999999999995  1.0000
  Nd  Nd7       1.0  0.35683999999999994  0.5  0.6097699999999998  1.0000
  P   P19       1.0  0.38047  0.5  0.42425  1.0000
  C   C61       1.0  0.11440000000000004  0.5  0.2805  1.0000
  C   C62       1.0  0.13070000000000007  0.5  0.20389999999999994  1.0000
  H   H121      1.0  0.07990000000000001  0.5  0.15969999999999995  1.0000
  C   C63       1.0  0.22479999999999997  0.5  0.19369999999999996  1.0000
  H   H122      1.0  0.2375  0.5  0.1424  1.0000
  C   C64       1.0  0.3  0.5  0.2608  1.0000
  H   H123      1.0  0.3627  0.5  0.2537  1.0000
  C   C65       1.0  0.2829  0.5  0.3389  1.0000
  C   C66       1.0  0.1883  0.5  0.3481  1.0000
  H   H124      1.0  0.17480000000000004  0.5  0.3991  1.0000
  O   O77       1.0  0.4735000000000001  0.5  0.3976  1.0000
  O   O78       1.0  0.984  0.5  0.3729999999999999  1.0000
  Nd  Nd8       1.0  0.8568400000000003  0.0  0.10977  1.0000
  P   P20       1.0  0.8804700000000002  0.0  0.92425  1.0000
  C   C67       1.0  0.6144000000000001  0.0  0.7805  1.0000
  C   C68       1.0  0.6307  0.0  0.7038999999999997  1.0000
  H   H125      1.0  0.5799  0.0  0.6597  1.0000
  C   C69       1.0  0.7248000000000002  0.0  0.6937  1.0000
  H   H126      1.0  0.7375000000000003  0.0  0.6424  1.0000
  C   C70       1.0  0.8000000000000005  0.0  0.7608  1.0000
  H   H127      1.0  0.8627000000000002  0.0  0.7537  1.0000
  C   C71       1.0  0.7829  0.0  0.8389  1.0000
  C   C72       1.0  0.6883000000000001  0.0  0.8481  1.0000
  H   H128      1.0  0.6748  0.0  0.8991  1.0000
  O   O79       1.0  0.9735000000000003  0.0  0.8976  1.0000
  O   O80       1.0  0.4840000000000001  0.0  0.873  1.0000
