data_image0
_chemical_formula_structural       Mo6P4O25CHCHCHCHCHCHCHCHMo6P4O25CHCHCHCHCHCHCHCHMo6P4O25CHCHCHCHCHCHCHCHMo6P4O25CHCHCHCHCHCHCHCHMo6P4O25CHCHCHCHCHCHCHCHMo6P4O25CHCHCHCHCHCHCHCHMo6P4O25CHCHCHCHCHCHCHCHMo6P4O25CHCHCHCHCHCHCHCHNi5N2C2NiN2C2NiN2C2NiN2C2NiN2C2NiN2C2NiN2C2NiN2C2
_chemical_formula_sum              "Mo48 P32 O200 C80 H64 Ni12 N16"
_cell_length_a       27.745
_cell_length_b       16.1583
_cell_length_c       22.8192
_cell_angle_alpha    90.0
_cell_angle_beta     90.0
_cell_angle_gamma    90.0

_space_group_name_H-M_alt    "P 1"
_space_group_IT_number       1

loop_
  _space_group_symop_operation_xyz
  'x, y, z'

loop_
  _atom_site_type_symbol
  _atom_site_label
  _atom_site_symmetry_multiplicity
  _atom_site_fract_x
  _atom_site_fract_y
  _atom_site_fract_z
  _atom_site_occupancy
  Mo  Mo1       1.0  0.049520000000000015  0.79899  0.4392  1.0000
  Mo  Mo2       1.0  0.9331900000000002  0.10353  0.3737500000000001  1.0000
  Mo  Mo3       1.0  0.060180000000000004  0.11225  0.36951  1.0000
  Mo  Mo4       1.0  0.88931  0.96777  0.40365  1.0000
  Mo  Mo5       1.0  0.10993  0.98124  0.39676999999999996  1.0000
  Mo  Mo6       1.0  0.95576  0.7925  0.44344  1.0000
  P   P1        1.0  0.86866  0.7807600000000002  0.34321  1.0000
  P   P2        1.0  0.13351  0.79653  0.33514  1.0000
  P   P3        1.0  0.9914500000000003  0.18598  0.26103  1.0000
  P   P4        1.0  0.9980000000000002  0.9328  0.33956  1.0000
  O   O1        1.0  0.82337  0.7299  0.34061  1.0000
  O   O2        1.0  0.90436  0.7451  0.38777  1.0000
  O   O3        1.0  0.85739  0.8728  0.35515  1.0000
  O   O4        1.0  0.89435  0.7816  0.281  1.0000
  O   O5        1.0  0.17809  0.7443  0.33203  1.0000
  O   O6        1.0  0.09782  0.7581  0.37849999999999995  1.0000
  O   O7        1.0  0.14546  0.8876  0.35083  1.0000
  O   O8        1.0  0.10968000000000003  0.7978  0.2721  1.0000
  O   O9        1.0  0.98172  0.2776  0.255  1.0000
  O   O10       1.0  0.039970000000000006  0.1667  0.29031  1.0000
  O   O11       1.0  0.94793  0.1471  0.29228  1.0000
  O   O12       1.0  0.99319  0.1451  0.1982  1.0000
  O   O13       1.0  0.99728  0.0271  0.34587  1.0000
  O   O14       1.0  0.04487  0.8981  0.36576  1.0000
  O   O15       1.0  0.9545500000000001  0.8941  0.37189  1.0000
  O   O16       1.0  0.99401  0.9161  0.27288  1.0000
  O   O17       1.0  0.10162  0.8878  0.45955  1.0000
  O   O18       1.0  0.00175  0.8742  0.47645000000000004  1.0000
  O   O19       1.0  0.002380000000000001  0.7396  0.39200999999999997  1.0000
  O   O20       1.0  0.94109  0.031100000000000003  0.44399  1.0000
  O   O21       1.0  0.99584  0.16680000000000006  0.40040999999999993  1.0000
  O   O22       1.0  0.89631  0.023  0.32862  1.0000
  O   O23       1.0  0.05746  0.0388  0.43956  1.0000
  O   O24       1.0  0.09753  0.0353  0.32231  1.0000
  O   O25       1.0  0.9015  0.8757  0.46658999999999995  1.0000
  C   C1        1.0  0.7774  0.6988  0.2185  1.0000
  H   H1        1.0  0.7969  0.662  0.23879999999999998  1.0000
  C   C2        1.0  0.7786  0.6969  0.1579  1.0000
  H   H2        1.0  0.7987  0.6597  0.1387  1.0000
  C   C3        1.0  0.7847  0.7119  0.9671999999999998  1.0000
  H   H3        1.0  0.8092  0.6852  0.9468  1.0000
  C   C4        1.0  0.786  0.7104  0.028  1.0000
  H   H4        1.0  0.8108000000000002  0.683  0.0474  1.0000
  C   C5        1.0  0.2164  0.7107  0.21019999999999997  1.0000
  H   H5        1.0  0.19230000000000003  0.683  0.2305  1.0000
  C   C6        1.0  0.2155  0.7086000000000002  0.1494  1.0000
  H   H6        1.0  0.1914  0.6791  0.1302  1.0000
  C   C7        1.0  0.2129  0.7207  0.9588999999999999  1.0000
  H   H7        1.0  0.18650000000000003  0.7  0.9385  1.0000
  C   C8        1.0  0.2117  0.7193  0.0199  1.0000
  H   H8        1.0  0.1851  0.6978  0.0393  1.0000
  Mo  Mo7       1.0  0.45048  0.70101  0.4392  1.0000
  Mo  Mo8       1.0  0.56681  0.39647  0.3737500000000001  1.0000
  Mo  Mo9       1.0  0.43982  0.38775  0.36951  1.0000
  Mo  Mo10      1.0  0.61069  0.53223  0.40365  1.0000
  Mo  Mo11      1.0  0.39007000000000003  0.51876  0.39676999999999996  1.0000
  Mo  Mo12      1.0  0.54424  0.7075  0.44344  1.0000
  P   P5        1.0  0.63134  0.71924  0.34321  1.0000
  P   P6        1.0  0.3664900000000001  0.70347  0.33514  1.0000
  P   P7        1.0  0.50855  0.31402  0.26103  1.0000
  P   P8        1.0  0.502  0.5672  0.33956  1.0000
  O   O26       1.0  0.67663  0.7701  0.34061  1.0000
  O   O27       1.0  0.59564  0.7549  0.38777  1.0000
  O   O28       1.0  0.6426100000000002  0.6272  0.35515  1.0000
  O   O29       1.0  0.6056500000000002  0.7184  0.281  1.0000
  O   O30       1.0  0.32191  0.7557  0.33203  1.0000
  O   O31       1.0  0.40218  0.7419  0.37849999999999995  1.0000
  O   O32       1.0  0.35454  0.6124  0.35083  1.0000
  O   O33       1.0  0.39032000000000006  0.7022  0.2721  1.0000
  O   O34       1.0  0.51828  0.2224  0.255  1.0000
  O   O35       1.0  0.46003  0.3333  0.29031  1.0000
  O   O36       1.0  0.55207  0.3529  0.29228  1.0000
  O   O37       1.0  0.50681  0.3549  0.1982  1.0000
  O   O38       1.0  0.50272  0.4729  0.34587  1.0000
  O   O39       1.0  0.4551300000000001  0.6019  0.36576  1.0000
  O   O40       1.0  0.54545  0.6059  0.37189  1.0000
  O   O41       1.0  0.50599  0.5839  0.27288  1.0000
  O   O42       1.0  0.39838000000000007  0.6122  0.45955  1.0000
  O   O43       1.0  0.49825  0.6258000000000002  0.47645000000000004  1.0000
  O   O44       1.0  0.49762  0.7604  0.39200999999999997  1.0000
  O   O45       1.0  0.55891  0.4689  0.44399  1.0000
  O   O46       1.0  0.50416  0.3332  0.40040999999999993  1.0000
  O   O47       1.0  0.60369  0.477  0.32862  1.0000
  O   O48       1.0  0.44254  0.4612  0.43956  1.0000
  O   O49       1.0  0.40247  0.4647  0.32231  1.0000
  O   O50       1.0  0.5985  0.6243  0.46658999999999995  1.0000
  C   C9        1.0  0.7226  0.8012  0.2185  1.0000
  H   H9        1.0  0.7031  0.838  0.23879999999999998  1.0000
  C   C10       1.0  0.7214  0.8031  0.1579  1.0000
  H   H10       1.0  0.7013  0.8403  0.1387  1.0000
  C   C11       1.0  0.7153  0.7881  0.9671999999999998  1.0000
  H   H11       1.0  0.6908000000000002  0.8148  0.9468  1.0000
  C   C12       1.0  0.7140000000000001  0.7896  0.028  1.0000
  H   H12       1.0  0.6892  0.817  0.0474  1.0000
  C   C13       1.0  0.2836  0.7893  0.21019999999999997  1.0000
  H   H13       1.0  0.3077  0.817  0.2305  1.0000
  C   C14       1.0  0.2845  0.7914  0.1494  1.0000
  H   H14       1.0  0.3086  0.8209  0.1302  1.0000
  C   C15       1.0  0.2871  0.7793  0.9588999999999999  1.0000
  H   H15       1.0  0.3135000000000001  0.8  0.9385  1.0000
  C   C16       1.0  0.2883  0.7807  0.0199  1.0000
  H   H16       1.0  0.3149  0.8022  0.0393  1.0000
  Mo  Mo13      1.0  0.95048  0.29899  0.0608  1.0000
  Mo  Mo14      1.0  0.06681  0.60353  0.12625  1.0000
  Mo  Mo15      1.0  0.93982  0.61225  0.13049  1.0000
  Mo  Mo16      1.0  0.11069000000000002  0.46777  0.09635  1.0000
  Mo  Mo17      1.0  0.89007  0.48124  0.10323  1.0000
  Mo  Mo18      1.0  0.04424  0.2925  0.056560000000000006  1.0000
  P   P9        1.0  0.13134  0.28076  0.15679  1.0000
  P   P10       1.0  0.86649  0.29653  0.16486  1.0000
  P   P11       1.0  0.00855  0.68598  0.23897  1.0000
  P   P12       1.0  0.002  0.4328  0.16044  1.0000
  O   O51       1.0  0.17663  0.2299  0.15939  1.0000
  O   O52       1.0  0.09564  0.2451  0.11223  1.0000
  O   O53       1.0  0.14261  0.3728  0.14485  1.0000
  O   O54       1.0  0.10565000000000002  0.2816  0.219  1.0000
  O   O55       1.0  0.82191  0.2443  0.16797  1.0000
  O   O56       1.0  0.9021800000000002  0.2581  0.12149999999999998  1.0000
  O   O57       1.0  0.8545400000000002  0.3876  0.14917  1.0000
  O   O58       1.0  0.89032  0.2978  0.2279  1.0000
  O   O59       1.0  0.01828  0.7776  0.245  1.0000
  O   O60       1.0  0.96003  0.6667  0.20969  1.0000
  O   O61       1.0  0.05207  0.6471  0.20772000000000002  1.0000
  O   O62       1.0  0.00681  0.6451  0.3018  1.0000
  O   O63       1.0  0.00272  0.5271  0.15413  1.0000
  O   O64       1.0  0.95513  0.3981  0.13424  1.0000
  O   O65       1.0  0.04545  0.3941  0.12811  1.0000
  O   O66       1.0  0.00599  0.41610000000000014  0.22712  1.0000
  O   O67       1.0  0.89838  0.3878  0.04045  1.0000
  O   O68       1.0  0.9982500000000002  0.3742  0.02355  1.0000
  O   O69       1.0  0.99762  0.2396  0.10799  1.0000
  O   O70       1.0  0.05891000000000001  0.5311  0.05601  1.0000
  O   O71       1.0  0.00416  0.6668  0.09959  1.0000
  O   O72       1.0  0.10369  0.523  0.17138  1.0000
  O   O73       1.0  0.9425400000000003  0.5388  0.06044  1.0000
  O   O74       1.0  0.9024700000000001  0.5353  0.17769  1.0000
  O   O75       1.0  0.0985  0.3757  0.03341  1.0000
  C   C17       1.0  0.2226  0.19880000000000003  0.2815  1.0000
  H   H17       1.0  0.20310000000000003  0.162  0.2612  1.0000
  C   C18       1.0  0.2214  0.1969  0.3421  1.0000
  H   H18       1.0  0.2013  0.1597  0.3613  1.0000
  C   C19       1.0  0.2153  0.2119  0.5328  1.0000
  H   H19       1.0  0.19080000000000003  0.1852  0.5532  1.0000
  C   C20       1.0  0.214  0.21040000000000006  0.472  1.0000
  H   H20       1.0  0.1892  0.183  0.4526  1.0000
  C   C21       1.0  0.7836  0.2107  0.2898  1.0000
  H   H21       1.0  0.8077000000000002  0.183  0.2695  1.0000
  C   C22       1.0  0.7845  0.2086  0.3506  1.0000
  H   H22       1.0  0.8086  0.1791  0.3698  1.0000
  C   C23       1.0  0.7871000000000002  0.2207  0.5411  1.0000
  H   H23       1.0  0.8135  0.2  0.5615  1.0000
  C   C24       1.0  0.7883  0.2193  0.48009999999999997  1.0000
  H   H24       1.0  0.8149  0.1978  0.4607  1.0000
  Mo  Mo19      1.0  0.54952  0.20101  0.0608  1.0000
  Mo  Mo20      1.0  0.43319  0.89647  0.12625  1.0000
  Mo  Mo21      1.0  0.56018  0.88775  0.13049  1.0000
  Mo  Mo22      1.0  0.38931  0.03223  0.09635  1.0000
  Mo  Mo23      1.0  0.60993  0.01876  0.10323  1.0000
  Mo  Mo24      1.0  0.45576  0.2075  0.056560000000000006  1.0000
  P   P13       1.0  0.36866  0.21924  0.15679  1.0000
  P   P14       1.0  0.6335100000000002  0.20347  0.16486  1.0000
  P   P15       1.0  0.4914500000000001  0.81402  0.23897  1.0000
  P   P16       1.0  0.498  0.0672  0.16044  1.0000
  O   O76       1.0  0.32337  0.2701  0.15939  1.0000
  O   O77       1.0  0.4043600000000001  0.2549  0.11223  1.0000
  O   O78       1.0  0.35739000000000004  0.1272  0.14485  1.0000
  O   O79       1.0  0.3943500000000001  0.21840000000000007  0.219  1.0000
  O   O80       1.0  0.67809  0.2557  0.16797  1.0000
  O   O81       1.0  0.59782  0.2419  0.12149999999999998  1.0000
  O   O82       1.0  0.64546  0.1124  0.14917  1.0000
  O   O83       1.0  0.60968  0.2022  0.2279  1.0000
  O   O84       1.0  0.48172  0.7224000000000003  0.245  1.0000
  O   O85       1.0  0.53997  0.8333  0.20969  1.0000
  O   O86       1.0  0.44793  0.8529  0.20772000000000002  1.0000
  O   O87       1.0  0.49319  0.8549  0.3018  1.0000
  O   O88       1.0  0.49728  0.9729  0.15413  1.0000
  O   O89       1.0  0.54487  0.1019  0.13424  1.0000
  O   O90       1.0  0.45455  0.1059  0.12811  1.0000
  O   O91       1.0  0.49401  0.0839  0.22712  1.0000
  O   O92       1.0  0.60162  0.1122  0.04045  1.0000
  O   O93       1.0  0.50175  0.1258  0.02355  1.0000
  O   O94       1.0  0.50238  0.2604  0.10799  1.0000
  O   O95       1.0  0.44109000000000004  0.9689  0.05601  1.0000
  O   O96       1.0  0.49584  0.8332  0.09959  1.0000
  O   O97       1.0  0.39631000000000005  0.977  0.17138  1.0000
  O   O98       1.0  0.55746  0.9612  0.06044  1.0000
  O   O99       1.0  0.59753  0.9647  0.17769  1.0000
  O   O100      1.0  0.4015000000000001  0.12430000000000001  0.03341  1.0000
  C   C25       1.0  0.2774  0.3012  0.2815  1.0000
  H   H25       1.0  0.2969  0.338  0.2612  1.0000
  C   C26       1.0  0.2786  0.3031  0.3421  1.0000
  H   H26       1.0  0.2987  0.3403  0.3613  1.0000
  C   C27       1.0  0.2847  0.2881  0.5328  1.0000
  H   H27       1.0  0.3092  0.3148  0.5532  1.0000
  C   C28       1.0  0.286  0.2896  0.472  1.0000
  H   H28       1.0  0.3108  0.317  0.4526  1.0000
  C   C29       1.0  0.7164  0.2893  0.2898  1.0000
  H   H29       1.0  0.6923  0.317  0.2695  1.0000
  C   C30       1.0  0.7155000000000002  0.2914  0.3506  1.0000
  H   H30       1.0  0.6914  0.3209  0.3698  1.0000
  C   C31       1.0  0.7129  0.2793  0.5411  1.0000
  H   H31       1.0  0.6865  0.3  0.5615  1.0000
  C   C32       1.0  0.7117  0.2807  0.48009999999999997  1.0000
  H   H32       1.0  0.6851  0.3022  0.4607  1.0000
  Mo  Mo25      1.0  0.95048  0.20101  0.5608  1.0000
  Mo  Mo26      1.0  0.06681  0.89647  0.62625  1.0000
  Mo  Mo27      1.0  0.93982  0.88775  0.63049  1.0000
  Mo  Mo28      1.0  0.11069000000000002  0.03223  0.59635  1.0000
  Mo  Mo29      1.0  0.89007  0.01876  0.60323  1.0000
  Mo  Mo30      1.0  0.04424  0.2075  0.55656  1.0000
  P   P17       1.0  0.13134  0.21924  0.65679  1.0000
  P   P18       1.0  0.86649  0.20347  0.66486  1.0000
  P   P19       1.0  0.00855  0.81402  0.7389699999999999  1.0000
  P   P20       1.0  0.002  0.0672  0.66044  1.0000
  O   O101      1.0  0.17663  0.2701  0.65939  1.0000
  O   O102      1.0  0.09564  0.2549  0.61223  1.0000
  O   O103      1.0  0.14261  0.1272  0.64485  1.0000
  O   O104      1.0  0.10565000000000002  0.21840000000000007  0.719  1.0000
  O   O105      1.0  0.82191  0.2557  0.66797  1.0000
  O   O106      1.0  0.9021800000000002  0.2419  0.6215  1.0000
  O   O107      1.0  0.8545400000000002  0.1124  0.64917  1.0000
  O   O108      1.0  0.89032  0.2022  0.7278999999999999  1.0000
  O   O109      1.0  0.01828  0.7224000000000003  0.745  1.0000
  O   O110      1.0  0.96003  0.8333  0.70969  1.0000
  O   O111      1.0  0.05207  0.8529  0.7077200000000001  1.0000
  O   O112      1.0  0.00681  0.8549  0.8018  1.0000
  O   O113      1.0  0.00272  0.9729  0.65413  1.0000
  O   O114      1.0  0.95513  0.1019  0.63424  1.0000
  O   O115      1.0  0.04545  0.1059  0.62811  1.0000
  O   O116      1.0  0.00599  0.0839  0.72712  1.0000
  O   O117      1.0  0.89838  0.1122  0.54045  1.0000
  O   O118      1.0  0.9982500000000002  0.1258  0.52355  1.0000
  O   O119      1.0  0.99762  0.2604  0.60799  1.0000
  O   O120      1.0  0.05891000000000001  0.9689  0.55601  1.0000
  O   O121      1.0  0.00416  0.8332  0.59959  1.0000
  O   O122      1.0  0.10369  0.977  0.67138  1.0000
  O   O123      1.0  0.9425400000000003  0.9612  0.56044  1.0000
  O   O124      1.0  0.9024700000000001  0.9647  0.67769  1.0000
  O   O125      1.0  0.0985  0.12430000000000001  0.53341  1.0000
  C   C33       1.0  0.2226  0.3012  0.7815  1.0000
  H   H33       1.0  0.20310000000000003  0.338  0.7612  1.0000
  C   C34       1.0  0.2214  0.3031  0.8421  1.0000
  H   H34       1.0  0.2013  0.3403  0.8613  1.0000
  C   C35       1.0  0.2153  0.2881  0.0328  1.0000
  H   H35       1.0  0.19080000000000003  0.3148  0.053200000000000004  1.0000
  C   C36       1.0  0.214  0.2896  0.9719999999999999  1.0000
  H   H36       1.0  0.1892  0.317  0.9526  1.0000
  C   C37       1.0  0.7836  0.2893  0.7898  1.0000
  H   H37       1.0  0.8077000000000002  0.317  0.7695000000000001  1.0000
  C   C38       1.0  0.7845  0.2914  0.8505999999999999  1.0000
  H   H38       1.0  0.8086  0.3209  0.8698  1.0000
  C   C39       1.0  0.7871000000000002  0.2793  0.0411  1.0000
  H   H39       1.0  0.8135  0.3  0.0615  1.0000
  C   C40       1.0  0.7883  0.2807  0.9800999999999999  1.0000
  H   H40       1.0  0.8149  0.3022  0.9607  1.0000
  Mo  Mo31      1.0  0.54952  0.29899  0.5608  1.0000
  Mo  Mo32      1.0  0.43319  0.60353  0.62625  1.0000
  Mo  Mo33      1.0  0.56018  0.61225  0.63049  1.0000
  Mo  Mo34      1.0  0.38931  0.46777  0.59635  1.0000
  Mo  Mo35      1.0  0.60993  0.48124  0.60323  1.0000
  Mo  Mo36      1.0  0.45576  0.2925  0.55656  1.0000
  P   P21       1.0  0.36866  0.28076  0.65679  1.0000
  P   P22       1.0  0.6335100000000002  0.29653  0.66486  1.0000
  P   P23       1.0  0.4914500000000001  0.68598  0.7389699999999999  1.0000
  P   P24       1.0  0.498  0.4328  0.66044  1.0000
  O   O126      1.0  0.32337  0.2299  0.65939  1.0000
  O   O127      1.0  0.4043600000000001  0.2451  0.61223  1.0000
  O   O128      1.0  0.35739000000000004  0.3728  0.64485  1.0000
  O   O129      1.0  0.3943500000000001  0.2816  0.719  1.0000
  O   O130      1.0  0.67809  0.2443  0.66797  1.0000
  O   O131      1.0  0.59782  0.2581  0.6215  1.0000
  O   O132      1.0  0.64546  0.3876  0.64917  1.0000
  O   O133      1.0  0.60968  0.2978  0.7278999999999999  1.0000
  O   O134      1.0  0.48172  0.7776  0.745  1.0000
  O   O135      1.0  0.53997  0.6667  0.70969  1.0000
  O   O136      1.0  0.44793  0.6471  0.7077200000000001  1.0000
  O   O137      1.0  0.49319  0.6451  0.8018  1.0000
  O   O138      1.0  0.49728  0.5271  0.65413  1.0000
  O   O139      1.0  0.54487  0.3981  0.63424  1.0000
  O   O140      1.0  0.45455  0.3941  0.62811  1.0000
  O   O141      1.0  0.49401  0.41610000000000014  0.72712  1.0000
  O   O142      1.0  0.60162  0.3878  0.54045  1.0000
  O   O143      1.0  0.50175  0.3742  0.52355  1.0000
  O   O144      1.0  0.50238  0.2396  0.60799  1.0000
  O   O145      1.0  0.44109000000000004  0.5311  0.55601  1.0000
  O   O146      1.0  0.49584  0.6668  0.59959  1.0000
  O   O147      1.0  0.39631000000000005  0.523  0.67138  1.0000
  O   O148      1.0  0.55746  0.5388  0.56044  1.0000
  O   O149      1.0  0.59753  0.5353  0.67769  1.0000
  O   O150      1.0  0.4015000000000001  0.3757  0.53341  1.0000
  C   C41       1.0  0.2774  0.19880000000000003  0.7815  1.0000
  H   H41       1.0  0.2969  0.162  0.7612  1.0000
  C   C42       1.0  0.2786  0.1969  0.8421  1.0000
  H   H42       1.0  0.2987  0.1597  0.8613  1.0000
  C   C43       1.0  0.2847  0.2119  0.0328  1.0000
  H   H43       1.0  0.3092  0.1852  0.053200000000000004  1.0000
  C   C44       1.0  0.286  0.21040000000000006  0.9719999999999999  1.0000
  H   H44       1.0  0.3108  0.183  0.9526  1.0000
  C   C45       1.0  0.7164  0.2107  0.7898  1.0000
  H   H45       1.0  0.6923  0.183  0.7695000000000001  1.0000
  C   C46       1.0  0.7155000000000002  0.2086  0.8505999999999999  1.0000
  H   H46       1.0  0.6914  0.1791  0.8698  1.0000
  C   C47       1.0  0.7129  0.2207  0.0411  1.0000
  H   H47       1.0  0.6865  0.2  0.0615  1.0000
  C   C48       1.0  0.7117  0.2193  0.9800999999999999  1.0000
  H   H48       1.0  0.6851  0.1978  0.9607  1.0000
  Mo  Mo37      1.0  0.049520000000000015  0.70101  0.9392000000000001  1.0000
  Mo  Mo38      1.0  0.9331900000000002  0.39647  0.87375  1.0000
  Mo  Mo39      1.0  0.060180000000000004  0.38775  0.8695100000000001  1.0000
  Mo  Mo40      1.0  0.88931  0.53223  0.90365  1.0000
  Mo  Mo41      1.0  0.10993  0.51876  0.8967699999999998  1.0000
  Mo  Mo42      1.0  0.95576  0.7075  0.9434400000000001  1.0000
  P   P25       1.0  0.86866  0.71924  0.84321  1.0000
  P   P26       1.0  0.13351  0.70347  0.8351400000000001  1.0000
  P   P27       1.0  0.9914500000000003  0.31402  0.76103  1.0000
  P   P28       1.0  0.9980000000000002  0.5672  0.83956  1.0000
  O   O151      1.0  0.82337  0.7701  0.84061  1.0000
  O   O152      1.0  0.90436  0.7549  0.88777  1.0000
  O   O153      1.0  0.85739  0.6272  0.85515  1.0000
  O   O154      1.0  0.89435  0.7184  0.781  1.0000
  O   O155      1.0  0.17809  0.7557  0.8320299999999999  1.0000
  O   O156      1.0  0.09782  0.7419  0.8785  1.0000
  O   O157      1.0  0.14546  0.6124  0.85083  1.0000
  O   O158      1.0  0.10968000000000003  0.7022  0.7721  1.0000
  O   O159      1.0  0.98172  0.2224  0.755  1.0000
  O   O160      1.0  0.039970000000000006  0.3333  0.79031  1.0000
  O   O161      1.0  0.94793  0.3529  0.79228  1.0000
  O   O162      1.0  0.99319  0.3549  0.6982  1.0000
  O   O163      1.0  0.99728  0.4729  0.8458699999999999  1.0000
  O   O164      1.0  0.04487  0.6019  0.86576  1.0000
  O   O165      1.0  0.9545500000000001  0.6059  0.87189  1.0000
  O   O166      1.0  0.99401  0.5839  0.7728800000000001  1.0000
  O   O167      1.0  0.10162  0.6122  0.95955  1.0000
  O   O168      1.0  0.00175  0.6258000000000002  0.97645  1.0000
  O   O169      1.0  0.002380000000000001  0.7604  0.89201  1.0000
  O   O170      1.0  0.94109  0.4689  0.9439900000000001  1.0000
  O   O171      1.0  0.99584  0.3332  0.90041  1.0000
  O   O172      1.0  0.89631  0.477  0.82862  1.0000
  O   O173      1.0  0.05746  0.4612  0.93956  1.0000
  O   O174      1.0  0.09753  0.4647  0.8223100000000001  1.0000
  O   O175      1.0  0.9015  0.6243  0.9665899999999998  1.0000
  C   C49       1.0  0.7774  0.8012  0.7185  1.0000
  H   H49       1.0  0.7969  0.838  0.7388  1.0000
  C   C50       1.0  0.7786  0.8031  0.6579  1.0000
  H   H50       1.0  0.7987  0.8403  0.6387  1.0000
  C   C51       1.0  0.7847  0.7881  0.46720000000000006  1.0000
  H   H51       1.0  0.8092  0.8148  0.4467999999999999  1.0000
  C   C52       1.0  0.786  0.7896  0.528  1.0000
  H   H52       1.0  0.8108000000000002  0.817  0.5474  1.0000
  C   C53       1.0  0.2164  0.7893  0.7102  1.0000
  H   H53       1.0  0.19230000000000003  0.817  0.7305  1.0000
  C   C54       1.0  0.2155  0.7914  0.6494  1.0000
  H   H54       1.0  0.1914  0.8209  0.6302  1.0000
  C   C55       1.0  0.2129  0.7793  0.4589  1.0000
  H   H55       1.0  0.18650000000000003  0.8  0.43849999999999995  1.0000
  C   C56       1.0  0.2117  0.7807  0.5199  1.0000
  H   H56       1.0  0.1851  0.8022  0.5393  1.0000
  Mo  Mo43      1.0  0.45048  0.79899  0.9392000000000001  1.0000
  Mo  Mo44      1.0  0.56681  0.10353  0.87375  1.0000
  Mo  Mo45      1.0  0.43982  0.11225  0.8695100000000001  1.0000
  Mo  Mo46      1.0  0.61069  0.96777  0.90365  1.0000
  Mo  Mo47      1.0  0.39007000000000003  0.98124  0.8967699999999998  1.0000
  Mo  Mo48      1.0  0.54424  0.7925  0.9434400000000001  1.0000
  P   P29       1.0  0.63134  0.7807600000000002  0.84321  1.0000
  P   P30       1.0  0.3664900000000001  0.79653  0.8351400000000001  1.0000
  P   P31       1.0  0.50855  0.18598  0.76103  1.0000
  P   P32       1.0  0.502  0.9328  0.83956  1.0000
  O   O176      1.0  0.67663  0.7299  0.84061  1.0000
  O   O177      1.0  0.59564  0.7451  0.88777  1.0000
  O   O178      1.0  0.6426100000000002  0.8728  0.85515  1.0000
  O   O179      1.0  0.6056500000000002  0.7816  0.781  1.0000
  O   O180      1.0  0.32191  0.7443  0.8320299999999999  1.0000
  O   O181      1.0  0.40218  0.7581  0.8785  1.0000
  O   O182      1.0  0.35454  0.8876  0.85083  1.0000
  O   O183      1.0  0.39032000000000006  0.7978  0.7721  1.0000
  O   O184      1.0  0.51828  0.2776  0.755  1.0000
  O   O185      1.0  0.46003  0.1667  0.79031  1.0000
  O   O186      1.0  0.55207  0.1471  0.79228  1.0000
  O   O187      1.0  0.50681  0.1451  0.6982  1.0000
  O   O188      1.0  0.50272  0.0271  0.8458699999999999  1.0000
  O   O189      1.0  0.4551300000000001  0.8981  0.86576  1.0000
  O   O190      1.0  0.54545  0.8941  0.87189  1.0000
  O   O191      1.0  0.50599  0.9161  0.7728800000000001  1.0000
  O   O192      1.0  0.39838000000000007  0.8878  0.95955  1.0000
  O   O193      1.0  0.49825  0.8742  0.97645  1.0000
  O   O194      1.0  0.49762  0.7396  0.89201  1.0000
  O   O195      1.0  0.55891  0.031100000000000003  0.9439900000000001  1.0000
  O   O196      1.0  0.50416  0.16680000000000006  0.90041  1.0000
  O   O197      1.0  0.60369  0.023  0.82862  1.0000
  O   O198      1.0  0.44254  0.0388  0.93956  1.0000
  O   O199      1.0  0.40247  0.0353  0.8223100000000001  1.0000
  O   O200      1.0  0.5985  0.8757  0.9665899999999998  1.0000
  C   C57       1.0  0.7226  0.6988  0.7185  1.0000
  H   H57       1.0  0.7031  0.662  0.7388  1.0000
  C   C58       1.0  0.7214  0.6969  0.6579  1.0000
  H   H58       1.0  0.7013  0.6597  0.6387  1.0000
  C   C59       1.0  0.7153  0.7119  0.46720000000000006  1.0000
  H   H59       1.0  0.6908000000000002  0.6852  0.4467999999999999  1.0000
  C   C60       1.0  0.7140000000000001  0.7104  0.528  1.0000
  H   H60       1.0  0.6892  0.683  0.5474  1.0000
  C   C61       1.0  0.2836  0.7107  0.7102  1.0000
  H   H61       1.0  0.3077  0.683  0.7305  1.0000
  C   C62       1.0  0.2845  0.7086000000000002  0.6494  1.0000
  H   H62       1.0  0.3086  0.6791  0.6302  1.0000
  C   C63       1.0  0.2871  0.7207  0.4589  1.0000
  H   H63       1.0  0.3135000000000001  0.7  0.43849999999999995  1.0000
  C   C64       1.0  0.2883  0.7193  0.5199  1.0000
  H   H64       1.0  0.3149  0.6978  0.5393  1.0000
  Ni  Ni1       1.0  0.0  0.0  0.5  1.0000
  Ni  Ni2       1.0  0.5  0.5  0.5  1.0000
  Ni  Ni3       1.0  0.0  0.5  0.0  1.0000
  Ni  Ni4       1.0  0.5  0.0  0.0  1.0000
  Ni  Ni5       1.0  0.75  0.7500000000000002  0.34202  1.0000
  N   N1        1.0  0.75  0.7500000000000002  0.24920000000000003  1.0000
  N   N2        1.0  0.75  0.7500000000000002  0.9363000000000001  1.0000
  C   C65       1.0  0.75  0.7500000000000002  0.1256  1.0000
  C   C66       1.0  0.75  0.7500000000000002  0.06  1.0000
  Ni  Ni6       1.0  0.25  0.25  0.15798  1.0000
  N   N3        1.0  0.25  0.25  0.2508  1.0000
  N   N4        1.0  0.25  0.25  0.5637  1.0000
  C   C67       1.0  0.25  0.25  0.3744  1.0000
  C   C68       1.0  0.25  0.25  0.44  1.0000
  Ni  Ni7       1.0  0.25  0.25  0.65798  1.0000
  N   N5        1.0  0.25  0.25  0.7508000000000001  1.0000
  N   N6        1.0  0.25  0.25  0.0637  1.0000
  C   C69       1.0  0.25  0.25  0.8744  1.0000
  C   C70       1.0  0.25  0.25  0.9400000000000001  1.0000
  Ni  Ni8       1.0  0.75  0.7500000000000002  0.8420199999999999  1.0000
  N   N7        1.0  0.75  0.7500000000000002  0.7492  1.0000
  N   N8        1.0  0.75  0.7500000000000002  0.4363  1.0000
  C   C71       1.0  0.75  0.7500000000000002  0.6256  1.0000
  C   C72       1.0  0.75  0.7500000000000002  0.56  1.0000
  Ni  Ni9       1.0  0.25  0.7500000000000002  0.33384  1.0000
  N   N9        1.0  0.25  0.7500000000000002  0.2409  1.0000
  N   N10       1.0  0.25  0.7500000000000002  0.9284  1.0000
  C   C73       1.0  0.25  0.7500000000000002  0.1173  1.0000
  C   C74       1.0  0.25  0.7500000000000002  0.0511  1.0000
  Ni  Ni10      1.0  0.75  0.25  0.16616  1.0000
  N   N11       1.0  0.75  0.25  0.2591  1.0000
  N   N12       1.0  0.75  0.25  0.5716  1.0000
  C   C75       1.0  0.75  0.25  0.3827  1.0000
  C   C76       1.0  0.75  0.25  0.44889999999999997  1.0000
  Ni  Ni11      1.0  0.75  0.25  0.66616  1.0000
  N   N13       1.0  0.75  0.25  0.7591000000000001  1.0000
  N   N14       1.0  0.75  0.25  0.0716  1.0000
  C   C77       1.0  0.75  0.25  0.8827  1.0000
  C   C78       1.0  0.75  0.25  0.9489  1.0000
  Ni  Ni12      1.0  0.25  0.7500000000000002  0.83384  1.0000
  N   N15       1.0  0.25  0.7500000000000002  0.7409  1.0000
  N   N16       1.0  0.25  0.7500000000000002  0.4284  1.0000
  C   C79       1.0  0.25  0.7500000000000002  0.6173  1.0000
  C   C80       1.0  0.25  0.7500000000000002  0.5511  1.0000
