data_image0
_chemical_formula_structural       Ba6C3HCHCHC4HCHCHC8HCHCHC4HCHCHC8HCHCHC4HCHCHC5O25H2OH2OH2Ba6C3HCHCHC4HCHCHC8HCHCHC4HCHCHC8HCHCHC4HCHCHC5O25H2OH2OH2Ba6C3HCHCHC4HCHCHC8HCHCHC4HCHCHC8HCHCHC4HCHCHC5O25H2OH2OH2Ba6C3HCHCHC4HCHCHC8HCHCHC4HCHCHC8HCHCHC4HCHCHC5O25H2OH2OH2
_chemical_formula_sum              "Ba24 C192 H96 O108"
_cell_length_a       19.4778
_cell_length_b       13.9542
_cell_length_c       23.761000000000003
_cell_angle_alpha    90.0
_cell_angle_beta     104.44399999999999
_cell_angle_gamma    90.0

_symmetry_space_group_name_H-M    'P 1'
_symmetry_Int_Tables_number       1

loop_
  _symmetry_equiv_pos_as_xyz
  'x,y,z'

loop_
  _atom_site_type_symbol
  _atom_site_label
  _atom_site_symmetry_multiplicity
  _atom_site_fract_x
  _atom_site_fract_y
  _atom_site_fract_z
  _atom_site_occupancy
  Ba  Ba1       1.0  0.68237  0.75179  0.27033  1.0000
  Ba  Ba2       1.0  0.8359000000000001  0.92812  0.19408000000000003  1.0000
  Ba  Ba3       1.0  0.6801100000000001  0.43885  0.31513  1.0000
  Ba  Ba4       1.0  0.46847  0.44796  0.36189  1.0000
  Ba  Ba5       1.0  0.15623000000000004  0.67145  0.18658000000000005  1.0000
  Ba  Ba6       1.0  0.9779000000000001  0.44319  0.3734  1.0000
  C   C1        1.0  0.7471  0.4259  0.5145  1.0000
  C   C2        1.0  0.6872  0.36820000000000014  0.4955  1.0000
  C   C3        1.0  0.6894  0.273  0.5104  1.0000
  H   H1        1.0  0.6483  0.2362  0.5  1.0000
  C   C4        1.0  0.7522  0.2313  0.541  1.0000
  H   H2        1.0  0.7537000000000003  0.1667  0.5507  1.0000
  C   C5        1.0  0.8123000000000002  0.2865  0.5568000000000001  1.0000
  H   H3        1.0  0.8552000000000001  0.2577  0.5749  1.0000
  C   C6        1.0  0.8102000000000003  0.3828000000000001  0.5463  1.0000
  C   C7        1.0  0.7480000000000001  0.5317  0.5042000000000001  1.0000
  C   C8        1.0  0.7891  0.5717  0.4696000000000001  1.0000
  C   C9        1.0  0.7972  0.6696  0.4676  1.0000
  H   H4        1.0  0.8261  0.6953  0.4455000000000001  1.0000
  C   C10       1.0  0.7631000000000002  0.7303000000000002  0.4978000000000001  1.0000
  H   H5        1.0  0.7683999999999999  0.7963  0.4955  1.0000
  C   C11       1.0  0.7218000000000001  0.6931  0.5309  1.0000
  H   H6        1.0  0.6985000000000002  0.7338  0.5510000000000002  1.0000
  C   C12       1.0  0.7143  0.5949000000000001  0.5347  1.0000
  C   C13       1.0  0.6195  0.4  0.4528  1.0000
  C   C14       1.0  0.8775000000000001  0.44  0.5704  1.0000
  C   C15       1.0  0.825  0.5089  0.4352000000000001  1.0000
  C   C16       1.0  0.6707  0.5587  0.5745  1.0000
  C   C17       1.0  0.4154  0.6262  0.1986  1.0000
  C   C18       1.0  0.48190000000000005  0.5875  0.1986  1.0000
  C   C19       1.0  0.49590000000000006  0.5549  0.1471  1.0000
  H   H7        1.0  0.5406000000000001  0.5306  0.1477  1.0000
  C   C20       1.0  0.4446  0.5581  0.09550000000000002  1.0000
  H   H8        1.0  0.4539  0.535  0.0614  1.0000
  C   C21       1.0  0.3788  0.5963  0.09510000000000002  1.0000
  H   H9        1.0  0.3439  0.598  0.0604  1.0000
  C   C22       1.0  0.3636  0.6319000000000002  0.1449  1.0000
  C   C23       1.0  0.4016  0.6639  0.2535  1.0000
  C   C24       1.0  0.43600000000000005  0.7474  0.2774  1.0000
  C   C25       1.0  0.4272  0.7811  0.3306  1.0000
  H   H10       1.0  0.4523  0.8346000000000001  0.34790000000000004  1.0000
  C   C26       1.0  0.3819000000000001  0.7357  0.3572  1.0000
  H   H11       1.0  0.3763  0.7587  0.39250000000000007  1.0000
  C   C27       1.0  0.3446  0.6568000000000002  0.33280000000000004  1.0000
  H   H12       1.0  0.31200000000000006  0.6288000000000001  0.3504000000000001  1.0000
  C   C28       1.0  0.3553  0.6176  0.2810000000000001  1.0000
  C   C29       1.0  0.5416  0.5796  0.253  1.0000
  C   C30       1.0  0.29180000000000006  0.6747  0.14130000000000004  1.0000
  C   C31       1.0  0.48190000000000005  0.8022  0.24630000000000002  1.0000
  C   C32       1.0  0.3167  0.5268  0.2579000000000001  1.0000
  C   C33       1.0  0.892  0.6057  0.1981  1.0000
  C   C34       1.0  0.8235  0.612  0.1598  1.0000
  C   C35       1.0  0.8091  0.5609  0.10780000000000002  1.0000
  H   H13       1.0  0.7637000000000002  0.5627  0.08330000000000001  1.0000
  C   C36       1.0  0.8611  0.5072  0.0919  1.0000
  H   H14       1.0  0.8515  0.4764  0.0561  1.0000
  C   C37       1.0  0.9282  0.49980000000000013  0.1301  1.0000
  H   H15       1.0  0.9630000000000001  0.4633  0.11970000000000003  1.0000
  C   C38       1.0  0.9433  0.5457  0.18280000000000002  1.0000
  C   C39       1.0  0.9135  0.662  0.2526  1.0000
  C   C40       1.0  0.9647000000000002  0.7346  0.25600000000000006  1.0000
  C   C41       1.0  0.9943  0.7793  0.3088000000000001  1.0000
  H   H16       1.0  0.030499999999999992  0.8238  0.3114  1.0000
  C   C42       1.0  0.9703  0.7582000000000001  0.3572  1.0000
  H   H17       1.0  0.9905000000000002  0.788  0.3924  1.0000
  C   C43       1.0  0.9163000000000002  0.6928  0.3532  1.0000
  H   H18       1.0  0.8984000000000001  0.6812  0.3854  1.0000
  C   C44       1.0  0.8879  0.6435000000000001  0.3009  1.0000
  C   C45       1.0  0.7657  0.6736  0.17270000000000002  1.0000
  C   C46       1.0  0.014799999999999999  0.5247  0.2247  1.0000
  C   C47       1.0  0.9842000000000001  0.7719  0.20240000000000002  1.0000
  C   C48       1.0  0.8313000000000003  0.5673  0.2988  1.0000
  O   O1        1.0  0.6241  0.45630000000000004  0.41238  1.0000
  O   O2        1.0  0.5621000000000003  0.3657  0.45854  1.0000
  O   O3        1.0  0.9347  0.40850000000000003  0.56281  1.0000
  O   O4        1.0  0.8744000000000002  0.5138  0.5992700000000001  1.0000
  O   O5        1.0  0.8881  0.5266  0.4341200000000001  1.0000
  O   O6        1.0  0.7899  0.43860000000000005  0.40797  1.0000
  O   O7        1.0  0.6069  0.5436  0.55418  1.0000
  O   O8        1.0  0.7015000000000001  0.5496  0.6282000000000001  1.0000
  O   O9        1.0  0.5282000000000001  0.5667  0.30113  1.0000
  O   O10       1.0  0.6037000000000001  0.5851  0.24569000000000002  1.0000
  O   O11       1.0  0.23980000000000007  0.6304  0.11110000000000003  1.0000
  O   O12       1.0  0.28640000000000004  0.749  0.16930000000000003  1.0000
  O   O13       1.0  0.4515  0.8538000000000001  0.2048  1.0000
  O   O14       1.0  0.547  0.7945  0.2636  1.0000
  O   O15       1.0  0.35070000000000007  0.4519000000000001  0.25847  1.0000
  O   O16       1.0  0.24890000000000007  0.533  0.24016000000000007  1.0000
  O   O17       1.0  0.7809  0.7523000000000001  0.19703000000000004  1.0000
  O   O18       1.0  0.7039  0.6403  0.1573  1.0000
  O   O19       1.0  0.06870000000000002  0.523  0.20409000000000002  1.0000
  O   O20       1.0  0.0176  0.5054  0.2763  1.0000
  O   O21       1.0  0.04830000000000003  0.7761  0.20242000000000002  1.0000
  O   O22       1.0  0.935  0.8034  0.16211000000000003  1.0000
  O   O23       1.0  0.8486  0.48200000000000004  0.2966  1.0000
  O   O24       1.0  0.7703000000000001  0.5963  0.30030000000000007  1.0000
  O   O25       1.0  0.4115  0.2594  0.3536000000000001  1.0000
  H   H19       1.0  0.38730000000000003  0.2506  0.3784  1.0000
  H   H20       1.0  0.4442  0.2176  0.3587000000000001  1.0000
  O   O26       1.0  0.14660000000000006  0.6396  0.3057000000000001  1.0000
  H   H21       1.0  0.1747  0.6629  0.3267  1.0000
  H   H22       1.0  0.10660000000000003  0.6563  0.3108000000000001  1.0000
  O   O27       1.0  0.11760000000000001  0.8033  0.09732  1.0000
  H   H23       1.0  0.14620000000000005  0.8504  0.1038  1.0000
  H   H24       1.0  0.11930000000000002  0.7765  0.0655  1.0000
  Ba  Ba7       1.0  0.31763  0.25179  0.22967  1.0000
  Ba  Ba8       1.0  0.1641  0.42812  0.30592  1.0000
  Ba  Ba9       1.0  0.31989  0.93885  0.18487000000000003  1.0000
  Ba  Ba10      1.0  0.53153  0.94796  0.13811  1.0000
  Ba  Ba11      1.0  0.8437700000000001  0.17145  0.31342  1.0000
  Ba  Ba12      1.0  0.02210000000000001  0.9431900000000001  0.1266  1.0000
  C   C49       1.0  0.2529  0.9259000000000002  0.9855  1.0000
  C   C50       1.0  0.3128  0.8682  0.0045  1.0000
  C   C51       1.0  0.31060000000000004  0.7730000000000001  0.9896000000000001  1.0000
  H   H25       1.0  0.3517  0.7362000000000002  0.0  1.0000
  C   C52       1.0  0.2478  0.7313  0.9590000000000001  1.0000
  H   H26       1.0  0.24630000000000002  0.6667  0.9493000000000003  1.0000
  C   C53       1.0  0.1877  0.7865  0.9432  1.0000
  H   H27       1.0  0.1448000000000001  0.7577  0.9251000000000003  1.0000
  C   C54       1.0  0.18980000000000002  0.8828  0.9537  1.0000
  C   C55       1.0  0.25200000000000006  0.0317  0.9958  1.0000
  C   C56       1.0  0.2109  0.0717  0.0304  1.0000
  C   C57       1.0  0.2028  0.1696  0.032400000000000005  1.0000
  H   H28       1.0  0.17390000000000005  0.1953  0.05450000000000001  1.0000
  C   C58       1.0  0.23690000000000003  0.2303  0.0022  1.0000
  H   H29       1.0  0.23160000000000003  0.2963  0.0045  1.0000
  C   C59       1.0  0.2782000000000001  0.1931  0.9691000000000002  1.0000
  H   H30       1.0  0.30150000000000005  0.2338  0.949  1.0000
  C   C60       1.0  0.28570000000000007  0.0949  0.9653000000000002  1.0000
  C   C61       1.0  0.3805000000000001  0.9  0.0472  1.0000
  C   C62       1.0  0.12250000000000011  0.94  0.9296000000000002  1.0000
  C   C63       1.0  0.17500000000000004  0.0089  0.06480000000000001  1.0000
  C   C64       1.0  0.3293000000000001  0.05870000000000001  0.9255000000000002  1.0000
  C   C65       1.0  0.5846000000000002  0.1262  0.30140000000000006  1.0000
  C   C66       1.0  0.5181000000000002  0.0875  0.30140000000000006  1.0000
  C   C67       1.0  0.5041  0.0549  0.3529  1.0000
  H   H31       1.0  0.45940000000000003  0.0306  0.3523000000000001  1.0000
  C   C68       1.0  0.5554000000000002  0.0581  0.4045  1.0000
  H   H32       1.0  0.5461  0.035  0.4386  1.0000
  C   C69       1.0  0.6212  0.0963  0.4049000000000001  1.0000
  H   H33       1.0  0.6561  0.098  0.4396  1.0000
  C   C70       1.0  0.6364  0.1319  0.3551  1.0000
  C   C71       1.0  0.5984  0.1639  0.24650000000000005  1.0000
  C   C72       1.0  0.5640000000000002  0.2474  0.22260000000000005  1.0000
  C   C73       1.0  0.5728000000000001  0.2811  0.1694  1.0000
  H   H34       1.0  0.5477  0.3346  0.1521  1.0000
  C   C74       1.0  0.6181  0.2357  0.1428  1.0000
  H   H35       1.0  0.6237  0.2587  0.1075  1.0000
  C   C75       1.0  0.6554  0.15680000000000002  0.16720000000000002  1.0000
  H   H36       1.0  0.6880000000000001  0.1288  0.1496  1.0000
  C   C76       1.0  0.6447  0.1176  0.219  1.0000
  C   C77       1.0  0.4584  0.0796  0.24700000000000003  1.0000
  C   C78       1.0  0.7082000000000003  0.1747  0.3587000000000001  1.0000
  C   C79       1.0  0.5181  0.3022  0.2537  1.0000
  C   C80       1.0  0.6833  0.0268  0.24210000000000007  1.0000
  C   C81       1.0  0.10800000000000003  0.1057  0.30190000000000006  1.0000
  C   C82       1.0  0.1765  0.112  0.34020000000000006  1.0000
  C   C83       1.0  0.19090000000000001  0.06090000000000001  0.39220000000000005  1.0000
  H   H37       1.0  0.2363000000000001  0.0627  0.41670000000000007  1.0000
  C   C84       1.0  0.13890000000000002  0.0072000000000000015  0.4081000000000001  1.0000
  H   H38       1.0  0.14850000000000005  0.9764  0.44390000000000013  1.0000
  C   C85       1.0  0.07180000000000003  0.9998  0.3699  1.0000
  H   H39       1.0  0.037000000000000005  0.9633  0.3803  1.0000
  C   C86       1.0  0.0567  0.0457  0.31720000000000004  1.0000
  C   C87       1.0  0.08650000000000002  0.16200000000000003  0.24740000000000004  1.0000
  C   C88       1.0  0.03530000000000001  0.2346  0.244  1.0000
  C   C89       1.0  0.005700000000000022  0.2793  0.19120000000000006  1.0000
  H   H40       1.0  0.9695  0.3238  0.18860000000000005  1.0000
  C   C90       1.0  0.0297  0.2582  0.1428  1.0000
  H   H41       1.0  0.00950000000000001  0.288  0.10760000000000003  1.0000
  C   C91       1.0  0.0837  0.1928  0.1468  1.0000
  H   H42       1.0  0.10160000000000001  0.1812  0.1146  1.0000
  C   C92       1.0  0.1121  0.1435  0.19910000000000005  1.0000
  C   C93       1.0  0.23430000000000004  0.1736  0.3273  1.0000
  C   C94       1.0  0.9852000000000001  0.0247  0.27530000000000004  1.0000
  C   C95       1.0  0.01580000000000001  0.2719  0.29760000000000003  1.0000
  C   C96       1.0  0.16870000000000002  0.0673  0.20120000000000002  1.0000
  O   O28       1.0  0.3759  0.9563  0.08762000000000002  1.0000
  O   O29       1.0  0.4379  0.8657000000000002  0.041460000000000004  1.0000
  O   O30       1.0  0.06529999999999997  0.9085  0.93719  1.0000
  O   O31       1.0  0.12560000000000002  0.013800000000000002  0.90073  1.0000
  O   O32       1.0  0.1119  0.0266  0.06588000000000001  1.0000
  O   O33       1.0  0.21010000000000004  0.9386  0.09203  1.0000
  O   O34       1.0  0.3931000000000001  0.0436  0.9458200000000002  1.0000
  O   O35       1.0  0.2985  0.04960000000000001  0.8718  1.0000
  O   O36       1.0  0.4718000000000003  0.0667  0.19887  1.0000
  O   O37       1.0  0.3963  0.0851  0.25431000000000004  1.0000
  O   O38       1.0  0.7602000000000002  0.1304  0.3889  1.0000
  O   O39       1.0  0.7136  0.249  0.3307  1.0000
  O   O40       1.0  0.5485  0.3538  0.2952  1.0000
  O   O41       1.0  0.45300000000000007  0.29450000000000004  0.23640000000000003  1.0000
  O   O42       1.0  0.6493000000000002  0.9519  0.24153  1.0000
  O   O43       1.0  0.7511  0.033  0.25984000000000007  1.0000
  O   O44       1.0  0.21910000000000002  0.2523  0.30297  1.0000
  O   O45       1.0  0.2961  0.1403  0.3427  1.0000
  O   O46       1.0  0.9313  0.023  0.29591  1.0000
  O   O47       1.0  0.9824000000000002  0.0054  0.22370000000000007  1.0000
  O   O48       1.0  0.9517  0.2761  0.29758  1.0000
  O   O49       1.0  0.065  0.30340000000000006  0.33789  1.0000
  O   O50       1.0  0.1514  0.982  0.20340000000000005  1.0000
  O   O51       1.0  0.22970000000000002  0.0963  0.1997  1.0000
  O   O52       1.0  0.5885000000000002  0.7594  0.14640000000000003  1.0000
  H   H43       1.0  0.6127000000000002  0.7506  0.1216  1.0000
  H   H44       1.0  0.5558  0.7176  0.14130000000000004  1.0000
  O   O53       1.0  0.8534  0.1396  0.1943  1.0000
  H   H45       1.0  0.8253  0.1629  0.1733  1.0000
  H   H46       1.0  0.8934000000000001  0.1563  0.1892  1.0000
  O   O54       1.0  0.8824000000000001  0.3033  0.40268  1.0000
  H   H47       1.0  0.8538  0.35040000000000004  0.3962  1.0000
  H   H48       1.0  0.8807000000000001  0.2765  0.4345  1.0000
  Ba  Ba13      1.0  0.31763  0.24821  0.72967  1.0000
  Ba  Ba14      1.0  0.16410000000000008  0.07188000000000003  0.8059200000000002  1.0000
  Ba  Ba15      1.0  0.31989  0.56115  0.68487  1.0000
  Ba  Ba16      1.0  0.53153  0.55204  0.63811  1.0000
  Ba  Ba17      1.0  0.8437700000000001  0.32855  0.81342  1.0000
  Ba  Ba18      1.0  0.022099999999999995  0.55681  0.6266  1.0000
  C   C97       1.0  0.25290000000000007  0.5741  0.4855000000000001  1.0000
  C   C98       1.0  0.3128  0.6318000000000001  0.5045  1.0000
  C   C99       1.0  0.3106  0.727  0.4896  1.0000
  H   H49       1.0  0.3517  0.7638  0.5  1.0000
  C   C100      1.0  0.2478  0.7687000000000003  0.459  1.0000
  H   H50       1.0  0.24630000000000002  0.8333000000000002  0.4493  1.0000
  C   C101      1.0  0.1877  0.7135  0.44320000000000004  1.0000
  H   H51       1.0  0.1448  0.7423  0.4251  1.0000
  C   C102      1.0  0.18980000000000002  0.6172  0.45370000000000005  1.0000
  C   C103      1.0  0.25200000000000006  0.4683  0.4958  1.0000
  C   C104      1.0  0.2109  0.4283  0.5304  1.0000
  C   C105      1.0  0.20280000000000012  0.3304  0.5324000000000001  1.0000
  H   H52       1.0  0.17390000000000005  0.3047  0.5545  1.0000
  C   C106      1.0  0.23690000000000003  0.2697  0.5022  1.0000
  H   H53       1.0  0.23160000000000003  0.2037  0.5045  1.0000
  C   C107      1.0  0.2782  0.3069  0.46910000000000013  1.0000
  H   H54       1.0  0.30150000000000005  0.2662  0.4490000000000001  1.0000
  C   C108      1.0  0.28570000000000007  0.4051  0.4653000000000001  1.0000
  C   C109      1.0  0.38050000000000017  0.6  0.5472000000000001  1.0000
  C   C110      1.0  0.12250000000000004  0.56  0.4296000000000001  1.0000
  C   C111      1.0  0.17500000000000004  0.4911  0.5648  1.0000
  C   C112      1.0  0.3293  0.4413  0.42550000000000004  1.0000
  C   C113      1.0  0.5846000000000001  0.3738  0.8014  1.0000
  C   C114      1.0  0.5181  0.4125  0.8014  1.0000
  C   C115      1.0  0.5041  0.4451  0.8529000000000001  1.0000
  H   H55       1.0  0.45940000000000003  0.4694  0.8523000000000001  1.0000
  C   C116      1.0  0.5554000000000002  0.4419  0.9045000000000001  1.0000
  H   H56       1.0  0.5461000000000001  0.465  0.9386000000000001  1.0000
  C   C117      1.0  0.6212  0.4037  0.9049  1.0000
  H   H57       1.0  0.6561  0.40200000000000014  0.9396000000000001  1.0000
  C   C118      1.0  0.6364  0.3681000000000001  0.8551000000000001  1.0000
  C   C119      1.0  0.5984  0.3361  0.7465  1.0000
  C   C120      1.0  0.5640000000000001  0.2526  0.7226  1.0000
  C   C121      1.0  0.5728000000000001  0.2189  0.6694000000000001  1.0000
  H   H58       1.0  0.5477  0.1654  0.6521  1.0000
  C   C122      1.0  0.6181  0.2643  0.6428000000000001  1.0000
  H   H59       1.0  0.6237000000000003  0.2413  0.6075  1.0000
  C   C123      1.0  0.6554  0.3432  0.6672000000000001  1.0000
  H   H60       1.0  0.6880000000000001  0.3712  0.6496  1.0000
  C   C124      1.0  0.6447000000000002  0.3824  0.7190000000000002  1.0000
  C   C125      1.0  0.4584  0.4204  0.7470000000000002  1.0000
  C   C126      1.0  0.7082000000000004  0.3253  0.8587  1.0000
  C   C127      1.0  0.5181000000000001  0.1978  0.7537000000000003  1.0000
  C   C128      1.0  0.6833  0.47320000000000007  0.7421  1.0000
  C   C129      1.0  0.108  0.3943  0.8019000000000001  1.0000
  C   C130      1.0  0.17650000000000007  0.3880000000000001  0.8402000000000001  1.0000
  C   C131      1.0  0.1909  0.4391  0.8922  1.0000
  H   H61       1.0  0.2363  0.43730000000000013  0.9167  1.0000
  C   C132      1.0  0.13890000000000005  0.4928  0.9081  1.0000
  H   H62       1.0  0.14850000000000005  0.5236  0.9439  1.0000
  C   C133      1.0  0.07180000000000003  0.5002  0.8699  1.0000
  H   H63       1.0  0.03700000000000002  0.5367  0.8803000000000001  1.0000
  C   C134      1.0  0.05670000000000003  0.4543  0.8172000000000001  1.0000
  C   C135      1.0  0.08650000000000008  0.3380000000000001  0.7474000000000001  1.0000
  C   C136      1.0  0.035300000000000005  0.2654  0.744  1.0000
  C   C137      1.0  0.005700000000000079  0.2207  0.6912000000000001  1.0000
  H   H64       1.0  0.9695  0.1762  0.6886  1.0000
  C   C138      1.0  0.029700000000000046  0.2418  0.6428000000000001  1.0000
  H   H65       1.0  0.009500000000000024  0.21200000000000005  0.6076000000000001  1.0000
  C   C139      1.0  0.0837  0.3072  0.6468  1.0000
  H   H66       1.0  0.10160000000000001  0.3188000000000001  0.6146000000000001  1.0000
  C   C140      1.0  0.11209999999999996  0.3565  0.6991  1.0000
  C   C141      1.0  0.23430000000000012  0.3264  0.8273000000000003  1.0000
  C   C142      1.0  0.9852000000000001  0.4753  0.7753  1.0000
  C   C143      1.0  0.015799999999999988  0.2281  0.7976  1.0000
  C   C144      1.0  0.16870000000000004  0.43270000000000003  0.7012000000000002  1.0000
  O   O55       1.0  0.3759  0.5437  0.5876200000000001  1.0000
  O   O56       1.0  0.4379  0.6343  0.54146  1.0000
  O   O57       1.0  0.06529999999999997  0.5915  0.43719  1.0000
  O   O58       1.0  0.12560000000000002  0.4862  0.40073000000000003  1.0000
  O   O59       1.0  0.11190000000000004  0.4734  0.5658800000000002  1.0000
  O   O60       1.0  0.21010000000000004  0.5614  0.59203  1.0000
  O   O61       1.0  0.39310000000000006  0.4564  0.44582000000000005  1.0000
  O   O62       1.0  0.2985  0.4504  0.3718  1.0000
  O   O63       1.0  0.4718  0.4333  0.69887  1.0000
  O   O64       1.0  0.3963000000000001  0.4149  0.7543100000000003  1.0000
  O   O65       1.0  0.7602000000000002  0.3696  0.8889000000000001  1.0000
  O   O66       1.0  0.7136  0.251  0.8307  1.0000
  O   O67       1.0  0.5485  0.1462  0.7952000000000001  1.0000
  O   O68       1.0  0.45300000000000007  0.2055  0.7364  1.0000
  O   O69       1.0  0.6493000000000002  0.5481  0.7415300000000001  1.0000
  O   O70       1.0  0.7511000000000001  0.467  0.75984  1.0000
  O   O71       1.0  0.21910000000000007  0.24770000000000006  0.8029700000000001  1.0000
  O   O72       1.0  0.2961000000000001  0.3597  0.8427000000000001  1.0000
  O   O73       1.0  0.9313  0.477  0.79591  1.0000
  O   O74       1.0  0.9824000000000002  0.4946000000000001  0.7237  1.0000
  O   O75       1.0  0.9517  0.2239  0.7975800000000001  1.0000
  O   O76       1.0  0.06500000000000003  0.1966  0.8378900000000001  1.0000
  O   O77       1.0  0.1514000000000001  0.518  0.7034000000000001  1.0000
  O   O78       1.0  0.22970000000000002  0.4037  0.6997  1.0000
  O   O79       1.0  0.5885000000000002  0.7406000000000001  0.6464  1.0000
  H   H67       1.0  0.6127000000000002  0.7494000000000002  0.6216000000000002  1.0000
  H   H68       1.0  0.5558  0.7824  0.6413  1.0000
  O   O80       1.0  0.8534  0.3604  0.6943  1.0000
  H   H69       1.0  0.8253  0.3371  0.6733  1.0000
  H   H70       1.0  0.8934000000000001  0.3437  0.6892  1.0000
  O   O81       1.0  0.8824000000000001  0.1967  0.90268  1.0000
  H   H71       1.0  0.8538000000000002  0.1496  0.8962000000000001  1.0000
  H   H72       1.0  0.8807000000000001  0.2235  0.9345000000000001  1.0000
  Ba  Ba19      1.0  0.6823700000000004  0.7482100000000003  0.7703300000000001  1.0000
  Ba  Ba20      1.0  0.8359000000000001  0.57188  0.69408  1.0000
  Ba  Ba21      1.0  0.6801100000000001  0.06115  0.8151300000000001  1.0000
  Ba  Ba22      1.0  0.46847  0.05204  0.86189  1.0000
  Ba  Ba23      1.0  0.15623000000000004  0.82855  0.6865800000000001  1.0000
  Ba  Ba24      1.0  0.9779000000000001  0.056810000000000006  0.8734  1.0000
  C   C145      1.0  0.7471  0.0741  0.014500000000000004  1.0000
  C   C146      1.0  0.6872  0.1318  0.9955000000000003  1.0000
  C   C147      1.0  0.6894  0.227  0.010400000000000001  1.0000
  H   H73       1.0  0.6483  0.2638  0.0  1.0000
  C   C148      1.0  0.7522  0.2687  0.04100000000000001  1.0000
  H   H74       1.0  0.7537000000000003  0.3333  0.0507  1.0000
  C   C149      1.0  0.8123000000000002  0.2135  0.0568  1.0000
  H   H75       1.0  0.8552000000000001  0.2423  0.07490000000000001  1.0000
  C   C150      1.0  0.8102000000000003  0.11720000000000001  0.0463  1.0000
  C   C151      1.0  0.748  0.9683  0.0042  1.0000
  C   C152      1.0  0.7890999999999999  0.9283  0.9696  1.0000
  C   C153      1.0  0.7972000000000001  0.8304000000000002  0.9676000000000001  1.0000
  H   H76       1.0  0.8261  0.8047  0.9455000000000002  1.0000
  C   C154      1.0  0.7631000000000002  0.7697  0.9978000000000002  1.0000
  H   H77       1.0  0.7684000000000002  0.7037000000000001  0.9955000000000003  1.0000
  C   C155      1.0  0.7218000000000001  0.8069  0.0309  1.0000
  H   H78       1.0  0.6985000000000002  0.7662  0.051000000000000004  1.0000
  C   C156      1.0  0.7143  0.9051  0.0347  1.0000
  C   C157      1.0  0.6195  0.1  0.9528  1.0000
  C   C158      1.0  0.8775000000000001  0.06  0.0704  1.0000
  C   C159      1.0  0.825  0.9911  0.9352  1.0000
  C   C160      1.0  0.6707  0.9413  0.07450000000000001  1.0000
  C   C161      1.0  0.4154  0.8738  0.6986000000000002  1.0000
  C   C162      1.0  0.48190000000000016  0.9125000000000001  0.6986000000000002  1.0000
  C   C163      1.0  0.49590000000000006  0.9451000000000002  0.6471000000000001  1.0000
  H   H79       1.0  0.5406000000000001  0.9694  0.6477000000000002  1.0000
  C   C164      1.0  0.4446  0.9419000000000001  0.5955  1.0000
  H   H80       1.0  0.4539000000000002  0.965  0.5614000000000001  1.0000
  C   C165      1.0  0.3788  0.9037000000000001  0.5951  1.0000
  H   H81       1.0  0.3439  0.902  0.5604  1.0000
  C   C166      1.0  0.3636  0.8681  0.6449  1.0000
  C   C167      1.0  0.40160000000000007  0.8361000000000001  0.7535000000000001  1.0000
  C   C168      1.0  0.43600000000000017  0.7526  0.7774000000000001  1.0000
  C   C169      1.0  0.4272  0.7189  0.8306000000000001  1.0000
  H   H82       1.0  0.4523  0.6654  0.8479  1.0000
  C   C170      1.0  0.3819000000000001  0.7643  0.8572  1.0000
  H   H83       1.0  0.3763  0.7413  0.8925  1.0000
  C   C171      1.0  0.34460000000000013  0.8432  0.8328000000000001  1.0000
  H   H84       1.0  0.312  0.8712  0.8504  1.0000
  C   C172      1.0  0.35530000000000006  0.8824  0.781  1.0000
  C   C173      1.0  0.5416  0.9204  0.753  1.0000
  C   C174      1.0  0.2918  0.8253  0.6413  1.0000
  C   C175      1.0  0.48190000000000005  0.6978000000000001  0.7463  1.0000
  C   C176      1.0  0.31670000000000004  0.9732  0.7579000000000001  1.0000
  C   C177      1.0  0.892  0.8943  0.6981  1.0000
  C   C178      1.0  0.8235  0.888  0.6598000000000002  1.0000
  C   C179      1.0  0.8091  0.9391000000000002  0.6078  1.0000
  H   H85       1.0  0.7637000000000002  0.9373  0.5833  1.0000
  C   C180      1.0  0.8611  0.9928  0.5919  1.0000
  H   H86       1.0  0.8515  0.023600000000000003  0.5561000000000001  1.0000
  C   C181      1.0  0.9282  0.0002  0.6301000000000001  1.0000
  H   H87       1.0  0.9630000000000001  0.0367  0.6197000000000001  1.0000
  C   C182      1.0  0.9433  0.9543  0.6828  1.0000
  C   C183      1.0  0.9135  0.838  0.7526  1.0000
  C   C184      1.0  0.9647000000000002  0.7654000000000001  0.7560000000000001  1.0000
  C   C185      1.0  0.9943  0.7207  0.8088  1.0000
  H   H88       1.0  0.030500000000000072  0.6762  0.8114000000000002  1.0000
  C   C186      1.0  0.9703  0.7418  0.8572  1.0000
  H   H89       1.0  0.9905000000000002  0.712  0.8924000000000001  1.0000
  C   C187      1.0  0.9163000000000002  0.8072  0.8532000000000001  1.0000
  H   H90       1.0  0.8984000000000001  0.8188  0.8854000000000001  1.0000
  C   C188      1.0  0.8879  0.8565  0.8009000000000002  1.0000
  C   C189      1.0  0.7657  0.8264  0.6727  1.0000
  C   C190      1.0  0.014800000000000044  0.9753  0.7247000000000002  1.0000
  C   C191      1.0  0.9842000000000004  0.7281  0.7024000000000002  1.0000
  C   C192      1.0  0.8313000000000003  0.9327  0.7988  1.0000
  O   O82       1.0  0.6241  0.0437  0.91238  1.0000
  O   O83       1.0  0.5621000000000003  0.1343  0.9585400000000002  1.0000
  O   O84       1.0  0.9347  0.0915  0.06281000000000002  1.0000
  O   O85       1.0  0.8744000000000002  0.9862000000000002  0.09927  1.0000
  O   O86       1.0  0.8881  0.9734  0.9341200000000001  1.0000
  O   O87       1.0  0.7899000000000002  0.0614  0.9079700000000003  1.0000
  O   O88       1.0  0.6069  0.9564  0.05418000000000001  1.0000
  O   O89       1.0  0.7015000000000002  0.9504  0.1282  1.0000
  O   O90       1.0  0.5282000000000001  0.9333000000000001  0.8011300000000001  1.0000
  O   O91       1.0  0.6037000000000001  0.9149  0.74569  1.0000
  O   O92       1.0  0.23980000000000004  0.8696  0.6111  1.0000
  O   O93       1.0  0.28640000000000004  0.7510000000000002  0.6693  1.0000
  O   O94       1.0  0.4515  0.6462  0.7048  1.0000
  O   O95       1.0  0.547  0.7055  0.7636000000000002  1.0000
  O   O96       1.0  0.35070000000000007  0.0481  0.75847  1.0000
  O   O97       1.0  0.24890000000000007  0.9670000000000001  0.7401600000000002  1.0000
  O   O98       1.0  0.7809  0.7477  0.69703  1.0000
  O   O99       1.0  0.7039  0.8597000000000001  0.6573000000000001  1.0000
  O   O100      1.0  0.06870000000000004  0.977  0.7040900000000001  1.0000
  O   O101      1.0  0.0176  0.9946  0.7763  1.0000
  O   O102      1.0  0.04830000000000004  0.7239  0.70242  1.0000
  O   O103      1.0  0.935  0.6966  0.6621100000000001  1.0000
  O   O104      1.0  0.8486  0.018  0.7966  1.0000
  O   O105      1.0  0.7703000000000001  0.9037000000000001  0.8003000000000001  1.0000
  O   O106      1.0  0.4115  0.2406  0.8536  1.0000
  H   H91       1.0  0.38730000000000003  0.2494  0.8784000000000001  1.0000
  H   H92       1.0  0.4442  0.2824  0.8587  1.0000
  O   O107      1.0  0.1466000000000001  0.8604  0.8057000000000002  1.0000
  H   H93       1.0  0.17470000000000008  0.8371  0.8267000000000002  1.0000
  H   H94       1.0  0.1066000000000001  0.8437000000000002  0.8108000000000002  1.0000
  O   O108      1.0  0.11760000000000001  0.6967  0.59732  1.0000
  H   H95       1.0  0.14620000000000005  0.6496  0.6038000000000001  1.0000
  H   H96       1.0  0.11930000000000002  0.7235  0.5655  1.0000
