data_image0
_chemical_formula_structural       CaSO4C4HCHCCaSO4C4HCHCCaSO4C4HCHCCaSO4C4HCHC
_chemical_formula_sum              "Ca4 S4 O16 C24 H8"
_cell_length_a       6.5771
_cell_length_b       11.1226
_cell_length_c       18.033000000000005
_cell_angle_alpha    90.0
_cell_angle_beta     97.602
_cell_angle_gamma    90.0

_space_group_name_H-M_alt    "P 1"
_space_group_IT_number       1

loop_
  _space_group_symop_operation_xyz
  'x, y, z'

loop_
  _atom_site_type_symbol
  _atom_site_label
  _atom_site_symmetry_multiplicity
  _atom_site_fract_x
  _atom_site_fract_y
  _atom_site_fract_z
  _atom_site_occupancy
  Ca  Ca1       1.0  0.25266000000000005  0.9066299999999998  0.47691  1.0000
  S   S1        1.0  0.11732  0.19897999999999996  0.71174  1.0000
  O   O1        1.0  0.09550000000000003  0.0962  0.55836  1.0000
  O   O2        1.0  0.4247  0.05675  0.56162  1.0000
  O   O3        1.0  0.32439999999999997  0.3218  0.9101099999999999  1.0000
  O   O4        1.0  0.005899999999999997  0.29399999999999993  0.85249  1.0000
  C   C1        1.0  0.19460000000000008  0.2859  0.8567  1.0000
  C   C2        1.0  0.2755  0.0953  0.59173  1.0000
  C   C3        1.0  0.3134  0.1374  0.66982  1.0000
  C   C4        1.0  0.49289999999999995  0.1372  0.71702  1.0000
  H   H1        1.0  0.6149999999999999  0.1061  0.7044  1.0000
  C   C5        1.0  0.4741  0.18909999999999996  0.78708  1.0000
  H   H2        1.0  0.5824  0.196  0.8256  1.0000
  C   C6        1.0  0.2792  0.2282  0.79229  1.0000
  Ca  Ca2       1.0  0.24734  0.40663  0.02309  1.0000
  S   S2        1.0  0.38268  0.69898  0.78826  1.0000
  O   O5        1.0  0.4045  0.5962  0.94164  1.0000
  O   O6        1.0  0.07530000000000006  0.55675  0.9383800000000001  1.0000
  O   O7        1.0  0.1756  0.8218  0.58989  1.0000
  O   O8        1.0  0.4941  0.794  0.64751  1.0000
  C   C7        1.0  0.3054  0.7858999999999999  0.6433  1.0000
  C   C8        1.0  0.2245  0.5953  0.9082699999999999  1.0000
  C   C9        1.0  0.18660000000000002  0.6374  0.83018  1.0000
  C   C10       1.0  0.007100000000000025  0.6372  0.78298  1.0000
  H   H3        1.0  0.8850000000000001  0.6061  0.7956  1.0000
  C   C11       1.0  0.02589999999999997  0.6891  0.71292  1.0000
  H   H4        1.0  0.9176  0.6959999999999998  0.6744  1.0000
  C   C12       1.0  0.2208  0.7282  0.70771  1.0000
  Ca  Ca3       1.0  0.74734  0.09337  0.52309  1.0000
  S   S3        1.0  0.88268  0.8010199999999997  0.28826  1.0000
  O   O9        1.0  0.9045  0.9038  0.44164  1.0000
  O   O10       1.0  0.5753  0.94325  0.43838  1.0000
  O   O11       1.0  0.6755999999999999  0.6782  0.08989  1.0000
  O   O12       1.0  0.9941  0.706  0.14751  1.0000
  C   C13       1.0  0.8054  0.7141  0.1433  1.0000
  C   C14       1.0  0.7245  0.9046999999999998  0.40827  1.0000
  C   C15       1.0  0.6866  0.8625999999999999  0.33018  1.0000
  C   C16       1.0  0.5071  0.8628  0.28298  1.0000
  H   H5        1.0  0.385  0.8939  0.2956  1.0000
  C   C17       1.0  0.5259  0.8109  0.21292  1.0000
  H   H6        1.0  0.4176  0.804  0.1744  1.0000
  C   C18       1.0  0.7208000000000001  0.7718  0.20771  1.0000
  Ca  Ca4       1.0  0.75266  0.59337  0.9769099999999998  1.0000
  S   S4        1.0  0.61732  0.30102  0.21174  1.0000
  O   O13       1.0  0.5955  0.40379999999999994  0.05836000000000001  1.0000
  O   O14       1.0  0.9247  0.44325  0.06162  1.0000
  O   O15       1.0  0.8244000000000001  0.17819999999999997  0.41011  1.0000
  O   O16       1.0  0.5059  0.206  0.35249  1.0000
  C   C19       1.0  0.6945999999999999  0.21409999999999998  0.3567  1.0000
  C   C20       1.0  0.7754999999999999  0.4047  0.09173  1.0000
  C   C21       1.0  0.8134  0.36259999999999987  0.16982  1.0000
  C   C22       1.0  0.9929  0.3627999999999999  0.21702  1.0000
  H   H7        1.0  0.11500000000000002  0.3938999999999999  0.2044  1.0000
  C   C23       1.0  0.9741  0.3109  0.28708  1.0000
  H   H8        1.0  0.0824  0.304  0.3256  1.0000
  C   C24       1.0  0.7791999999999999  0.27179999999999993  0.29229  1.0000
