data_image0
_chemical_formula_structural       O4C2HC2HC2HC3O4C2HC2HC2HC3O4C2HC2HC2HC3O4C2HC2HC2HC3O4C2HC2HC2HC3O4C2HC2HC2HC3O4C2HC2HC2HC3O4C2HC2HC2HC3Mn4
_chemical_formula_sum              "O32 C72 H24 Mn4"
_cell_length_a       10.913
_cell_length_b       23.195
_cell_length_c       10.043
_cell_angle_alpha    90.0
_cell_angle_beta     104.14999999999999
_cell_angle_gamma    90.0

_symmetry_space_group_name_H-M    'P 1'
_symmetry_Int_Tables_number       1

loop_
  _symmetry_equiv_pos_as_xyz
  'x,y,z'

loop_
  _atom_site_type_symbol
  _atom_site_label
  _atom_site_symmetry_multiplicity
  _atom_site_fract_x
  _atom_site_fract_y
  _atom_site_fract_z
  _atom_site_occupancy
  O   O1        1.0  0.19069999999999998  0.85193  0.21812  1.0000
  O   O2        1.0  0.27734  0.7641  0.22532000000000002  1.0000
  O   O3        1.0  0.53776  0.7217600000000001  0.9037400000000001  1.0000
  O   O4        1.0  0.6562200000000002  0.79242  0.851  1.0000
  C   C1        1.0  0.36253  0.8377100000000001  0.11661  1.0000
  C   C2        1.0  0.42619  0.79773  0.055170000000000004  1.0000
  H   H1        1.0  0.41190000000000004  0.7585  0.0637  1.0000
  C   C3        1.0  0.5110400000000002  0.8161  0.9812300000000002  1.0000
  C   C4        1.0  0.53446  0.87445  0.9708000000000002  1.0000
  H   H2        1.0  0.5929000000000001  0.8866000000000002  0.9231000000000003  1.0000
  C   C5        1.0  0.4708  0.9151  0.0314  1.0000
  C   C6        1.0  0.38423000000000007  0.89636  0.10421000000000001  1.0000
  H   H3        1.0  0.341  0.9231  0.14450000000000002  1.0000
  C   C7        1.0  0.26823  0.8174300000000001  0.19301  1.0000
  C   C8        1.0  0.57273  0.77279  0.9073000000000001  1.0000
  C   C9        1.0  0.4917  0.9753900000000001  0.012000000000000002  1.0000
  O   O5        1.0  0.6907  0.3519300000000001  0.21812  1.0000
  O   O6        1.0  0.77734  0.2641  0.22532000000000002  1.0000
  O   O7        1.0  0.037760000000000064  0.22176  0.9037400000000001  1.0000
  O   O8        1.0  0.15622  0.29242  0.851  1.0000
  C   C10       1.0  0.8625299999999999  0.33771  0.11661  1.0000
  C   C11       1.0  0.92619  0.29773  0.055170000000000004  1.0000
  H   H4        1.0  0.9119  0.2585  0.0637  1.0000
  C   C12       1.0  0.011040000000000036  0.3161  0.9812300000000002  1.0000
  C   C13       1.0  0.03446000000000006  0.37445000000000006  0.9708000000000002  1.0000
  H   H5        1.0  0.09290000000000001  0.38660000000000005  0.9231000000000003  1.0000
  C   C14       1.0  0.9708  0.4151  0.0314  1.0000
  C   C15       1.0  0.8842299999999998  0.39636  0.10421000000000001  1.0000
  H   H6        1.0  0.841  0.4231  0.14450000000000002  1.0000
  C   C16       1.0  0.76823  0.31743000000000005  0.19301  1.0000
  C   C17       1.0  0.07273  0.27279  0.9073000000000001  1.0000
  C   C18       1.0  0.9917  0.47539  0.012000000000000002  1.0000
  O   O9        1.0  0.8093000000000001  0.85193  0.28188  1.0000
  O   O10       1.0  0.72266  0.7641  0.27468  1.0000
  O   O11       1.0  0.46223999999999993  0.7217600000000001  0.5962600000000001  1.0000
  O   O12       1.0  0.34378  0.79242  0.649  1.0000
  C   C19       1.0  0.63747  0.8377100000000001  0.38339  1.0000
  C   C20       1.0  0.57381  0.79773  0.44483  1.0000
  H   H7        1.0  0.5881  0.7585  0.4363  1.0000
  C   C21       1.0  0.48896  0.8161  0.51877  1.0000
  C   C22       1.0  0.46553999999999995  0.87445  0.5292  1.0000
  H   H8        1.0  0.4071  0.8866000000000002  0.5769  1.0000
  C   C23       1.0  0.5292  0.9151  0.4686  1.0000
  C   C24       1.0  0.61577  0.89636  0.39579  1.0000
  H   H9        1.0  0.659  0.9231  0.35550000000000004  1.0000
  C   C25       1.0  0.73177  0.8174300000000001  0.30699  1.0000
  C   C26       1.0  0.42727  0.77279  0.5927  1.0000
  C   C27       1.0  0.5083  0.9753900000000001  0.488  1.0000
  O   O13       1.0  0.3093  0.3519300000000001  0.28188  1.0000
  O   O14       1.0  0.22266  0.2641  0.27468  1.0000
  O   O15       1.0  0.96224  0.22176  0.5962600000000001  1.0000
  O   O16       1.0  0.8437799999999999  0.29242  0.649  1.0000
  C   C28       1.0  0.13747  0.33771  0.38339  1.0000
  C   C29       1.0  0.07381  0.29773  0.44483  1.0000
  H   H10       1.0  0.0881  0.2585  0.4363  1.0000
  C   C30       1.0  0.98896  0.3161  0.51877  1.0000
  C   C31       1.0  0.9655399999999998  0.37445000000000006  0.5292  1.0000
  H   H11       1.0  0.9070999999999999  0.38660000000000005  0.5769  1.0000
  C   C32       1.0  0.029200000000000004  0.4151  0.4686  1.0000
  C   C33       1.0  0.11577  0.39636  0.39579  1.0000
  H   H12       1.0  0.159  0.4231  0.35550000000000004  1.0000
  C   C34       1.0  0.23177  0.31743000000000005  0.30699  1.0000
  C   C35       1.0  0.92727  0.27279  0.5927  1.0000
  C   C36       1.0  0.008299999999999998  0.47539  0.488  1.0000
  O   O17       1.0  0.8093000000000001  0.14807  0.78188  1.0000
  O   O18       1.0  0.72266  0.2359  0.7746800000000003  1.0000
  O   O19       1.0  0.46223999999999993  0.27824  0.09626  1.0000
  O   O20       1.0  0.34378  0.20758000000000001  0.149  1.0000
  C   C37       1.0  0.6374700000000001  0.16229  0.8833900000000001  1.0000
  C   C38       1.0  0.57381  0.20227  0.94483  1.0000
  H   H13       1.0  0.5881  0.2415  0.9363  1.0000
  C   C39       1.0  0.48896  0.1839  0.01877  1.0000
  C   C40       1.0  0.46553999999999995  0.12555  0.0292  1.0000
  H   H14       1.0  0.4071  0.1134  0.0769  1.0000
  C   C41       1.0  0.5292  0.0849  0.9686000000000001  1.0000
  C   C42       1.0  0.61577  0.10364  0.8957900000000001  1.0000
  H   H15       1.0  0.659  0.0769  0.8555  1.0000
  C   C43       1.0  0.7317699999999999  0.18257  0.8069900000000001  1.0000
  C   C44       1.0  0.42727  0.22721000000000002  0.0927  1.0000
  C   C45       1.0  0.5083  0.02461  0.988  1.0000
  O   O21       1.0  0.3093  0.64807  0.78188  1.0000
  O   O22       1.0  0.22266000000000008  0.7359  0.7746800000000003  1.0000
  O   O23       1.0  0.96224  0.77824  0.09626  1.0000
  O   O24       1.0  0.8437799999999999  0.70758  0.149  1.0000
  C   C46       1.0  0.13747000000000006  0.6622900000000002  0.8833900000000001  1.0000
  C   C47       1.0  0.07381  0.70227  0.94483  1.0000
  H   H16       1.0  0.08809999999999996  0.7415000000000002  0.9363  1.0000
  C   C48       1.0  0.98896  0.6839  0.01877  1.0000
  C   C49       1.0  0.9655399999999998  0.62555  0.0292  1.0000
  H   H17       1.0  0.9070999999999999  0.6134  0.0769  1.0000
  C   C50       1.0  0.029200000000000014  0.5849  0.9686000000000001  1.0000
  C   C51       1.0  0.11577  0.60364  0.8957900000000001  1.0000
  H   H18       1.0  0.159  0.5769  0.8555  1.0000
  C   C52       1.0  0.23177  0.68257  0.8069900000000001  1.0000
  C   C53       1.0  0.92727  0.72721  0.0927  1.0000
  C   C54       1.0  0.008299999999999998  0.52461  0.988  1.0000
  O   O25       1.0  0.19069999999999998  0.14807  0.71812  1.0000
  O   O26       1.0  0.27734  0.2359  0.72532  1.0000
  O   O27       1.0  0.53776  0.27824  0.40374  1.0000
  O   O28       1.0  0.6562200000000002  0.20758000000000001  0.351  1.0000
  C   C55       1.0  0.36253  0.16229  0.61661  1.0000
  C   C56       1.0  0.42619  0.20227  0.55517  1.0000
  H   H19       1.0  0.41190000000000004  0.2415  0.5637  1.0000
  C   C57       1.0  0.51104  0.1839  0.48123  1.0000
  C   C58       1.0  0.53446  0.12555  0.47080000000000005  1.0000
  H   H20       1.0  0.5929  0.1134  0.4231  1.0000
  C   C59       1.0  0.4708  0.0849  0.5314  1.0000
  C   C60       1.0  0.38423000000000007  0.10364  0.60421  1.0000
  H   H21       1.0  0.341  0.0769  0.6445000000000001  1.0000
  C   C61       1.0  0.26823  0.18257  0.69301  1.0000
  C   C62       1.0  0.57273  0.22721000000000002  0.4073  1.0000
  C   C63       1.0  0.4917  0.02461  0.512  1.0000
  O   O29       1.0  0.6907  0.64807  0.71812  1.0000
  O   O30       1.0  0.77734  0.7359  0.72532  1.0000
  O   O31       1.0  0.03776  0.77824  0.40374  1.0000
  O   O32       1.0  0.15622  0.70758  0.351  1.0000
  C   C64       1.0  0.86253  0.6622900000000002  0.61661  1.0000
  C   C65       1.0  0.92619  0.70227  0.55517  1.0000
  H   H22       1.0  0.9119  0.7415000000000002  0.5637  1.0000
  C   C66       1.0  0.011039999999999996  0.6839  0.48123  1.0000
  C   C67       1.0  0.03445999999999999  0.62555  0.47080000000000005  1.0000
  H   H23       1.0  0.0929  0.6134  0.4231  1.0000
  C   C68       1.0  0.9708  0.5849  0.5314  1.0000
  C   C69       1.0  0.8842299999999998  0.60364  0.60421  1.0000
  H   H24       1.0  0.841  0.5769  0.6445000000000001  1.0000
  C   C70       1.0  0.76823  0.68257  0.69301  1.0000
  C   C71       1.0  0.07273  0.72721  0.4073  1.0000
  C   C72       1.0  0.9917  0.52461  0.512  1.0000
  Mn  Mn1       1.0  0.0  0.84591  0.25  1.0000
  Mn  Mn2       1.0  0.5  0.34591  0.25  1.0000
  Mn  Mn3       1.0  0.0  0.15409  0.75  1.0000
  Mn  Mn4       1.0  0.5  0.65409  0.75  1.0000
