data_image0
_chemical_formula_structural       Mg6O18C66H90N12
_chemical_formula_sum              "Mg6 O18 C66 H90 N12"
_cell_length_a       21.805
_cell_length_b       21.940685
_cell_length_c       6.889177
_cell_angle_alpha    90.325211
_cell_angle_beta     90.049904
_cell_angle_gamma    120.63726800000002

_space_group_name_H-M_alt    "P 1"
_space_group_IT_number       1

loop_
  _space_group_symop_operation_xyz
  'x, y, z'

loop_
  _atom_site_type_symbol
  _atom_site_label
  _atom_site_symmetry_multiplicity
  _atom_site_fract_x
  _atom_site_fract_y
  _atom_site_fract_z
  _atom_site_occupancy
  Mg  Mg1       1.0  0.9670850000000001  0.96094  0.3922219999999999  1.0000
  Mg  Mg2       1.0  0.026939000000000275  0.07119199999999992  0.05966000000000005  1.0000
  Mg  Mg3       1.0  0.910529  0.017787999999999915  0.717765  1.0000
  Mg  Mg4       1.0  0.23678200000000033  0.676067  0.4211100000000001  1.0000
  Mg  Mg5       1.0  0.3559780000000002  0.741893  0.7525740000000005  1.0000
  Mg  Mg6       1.0  0.30509900000000006  0.628577  0.08804400000000001  1.0000
  O   O1        1.0  0.05542300000000001  0.00901799999999997  0.20591099999999996  1.0000
  O   O2        1.0  0.9777190000000002  0.11049200000000003  0.8729580000000002  1.0000
  O   O3        1.0  0.8737890000000001  0.932474  0.533919  1.0000
  O   O4        1.0  0.2802430000000003  0.75906  0.6156170000000004  1.0000
  O   O5        1.0  0.3948380000000001  0.697607  0.9395380000000002  1.0000
  O   O6        1.0  0.21826199999999998  0.585528  0.275131  1.0000
  O   O7        1.0  0.9899640000000002  0.99235  0.8473360000000003  1.0000
  O   O8        1.0  0.993052  0.06384199999999995  0.5146820000000001  1.0000
  O   O9        1.0  0.923671  0.9947129999999998  0.17976599999999987  1.0000
  O   O10       1.0  0.2797860000000001  0.709925  0.9762010000000001  1.0000
  O   O11       1.0  0.34557500000000024  0.703042  0.308366  1.0000
  O   O12       1.0  0.27347499999999997  0.635231  0.6409509999999998  1.0000
  O   O13       1.0  0.015597000000000116  0.937899  0.61359  1.0000
  O   O14       1.0  0.04874899999999995  0.14460000000000006  0.28255300000000005  1.0000
  O   O15       1.0  0.8424760000000001  0.971888  0.9471069999999999  1.0000
  O   O16       1.0  0.2210830000000001  0.731549  0.20800399999999986  1.0000
  O   O17       1.0  0.4284280000000001  0.764979  0.5334469999999998  1.0000
  O   O18       1.0  0.25230899999999995  0.554605  0.8686509999999998  1.0000
  C   C1        1.0  0.08470500000000006  0.97536  0.11931700000000013  1.0000
  C   C2        1.0  0.005732999999999983  0.17305700000000002  0.7851530000000007  1.0000
  C   C3        1.0  0.8100380000000001  0.9024509999999999  0.44684100000000004  1.0000
  C   C4        1.0  0.2514490000000003  0.793231  0.7007629999999998  1.0000
  C   C5        1.0  0.4589270000000003  0.732121  0.024407000000000068  1.0000
  C   C6        1.0  0.1827780000000001  0.522957  0.3636300000000002  1.0000
  C   C7        1.0  0.06878000000000029  0.948425  0.9240470000000003  1.0000
  C   C8        1.0  0.029984000000000004  0.18524399999999996  0.5874380000000002  1.0000
  C   C9        1.0  0.7997109999999998  0.9159009999999999  0.250505  1.0000
  C   C10       1.0  0.23747900000000025  0.7897540000000001  0.9051110000000003  1.0000
  C   C11       1.0  0.4694499999999999  0.751342  0.2257889999999998  1.0000
  C   C12       1.0  0.189584  0.512915  0.5669450000000005  1.0000
  C   C13       1.0  0.10222599999999996  0.9128109999999999  0.8484350000000003  1.0000
  C   C14       1.0  0.061428000000000274  0.2543249999999999  0.5118870000000002  1.0000
  C   C15       1.0  0.7304249999999999  0.8826369999999998  0.17278800000000016  1.0000
  C   C16       1.0  0.20562400000000008  0.82654  0.9820089999999999  1.0000
  C   C17       1.0  0.5389510000000003  0.785813  0.30198800000000015  1.0000
  C   C18       1.0  0.1504160000000001  0.44445  0.645495  1.0000
  C   C19       1.0  0.15245700000000031  0.904381  0.9526650000000001  1.0000
  C   C20       1.0  0.06854200000000009  0.31220899999999996  0.6177260000000007  1.0000
  C   C21       1.0  0.670297  0.835374  0.27811699999999995  1.0000
  C   C22       1.0  0.1868639999999999  0.867089  0.8678020000000006  1.0000
  C   C23       1.0  0.5985290000000003  0.801659  0.19028299999999998  1.0000
  C   C24       1.0  0.105302  0.384457  0.5341890000000005  1.0000
  C   C25       1.0  0.1689399999999999  0.9329249999999999  0.14280999999999988  1.0000
  C   C26       1.0  0.04118500000000024  0.2986899999999999  0.808484  1.0000
  C   C27       1.0  0.681351  0.821029  0.4704510000000007  1.0000
  C   C28       1.0  0.2012080000000003  0.870143  0.6667700000000001  1.0000
  C   C29       1.0  0.587483  0.783477  0.9910319999999999  1.0000
  C   C30       1.0  0.09889499999999996  0.39533  0.3350469999999999  1.0000
  C   C31       1.0  0.13544299999999998  0.966248  0.2245149999999998  1.0000
  C   C32       1.0  0.011186000000000126  0.23172400000000004  0.8894630000000007  1.0000
  C   C33       1.0  0.7489700000000001  0.8536  0.5523810000000005  1.0000
  C   C34       1.0  0.23263700000000004  0.834732  0.586299  1.0000
  C   C35       1.0  0.5197550000000002  0.749672  0.9105909999999999  1.0000
  C   C36       1.0  0.13537899999999992  0.46216100000000004  0.253336  1.0000
  C   C37       1.0  0.021625999999999916  0.9597099999999998  0.7877860000000007  1.0000
  C   C38       1.0  0.024167999999999974  0.128301  0.4536850000000001  1.0000
  C   C39       1.0  0.8587780000000002  0.963758  0.11843000000000004  1.0000
  C   C40       1.0  0.24711799999999998  0.741362  0.037631999999999895  1.0000
  C   C41       1.0  0.41116800000000003  0.738861  0.3630749999999998  1.0000
  C   C42       1.0  0.241417  0.570813  0.6996280000000002  1.0000
  C   C43       1.0  0.863263  0.81216  0.15318599999999982  1.0000
  C   C44       1.0  0.9519010000000001  0.808516  0.3702440000000001  1.0000
  C   C45       1.0  0.9382  0.737453  0.28270099999999987  1.0000
  C   C46       1.0  0.057816999999999986  0.754966  0.28964999999999996  1.0000
  C   C47       1.0  0.18076400000000017  0.11624600000000009  0.8656640000000001  1.0000
  C   C48       1.0  0.17355399999999999  0.216164  0.007327000000000084  1.0000
  C   C49       1.0  0.24423500000000023  0.271177  0.9104420000000002  1.0000
  C   C50       1.0  0.23130700000000018  0.37567  0.8964040000000001  1.0000
  C   C51       1.0  0.6300760000000003  0.9796240000000002  0.44528599999999985  1.0000
  C   C52       1.0  0.7278650000000001  0.06725200000000009  0.6523330000000002  1.0000
  C   C53       1.0  0.7716810000000002  0.030629999999999935  0.6851670000000003  1.0000
  C   C54       1.0  0.8502070000000002  0.0850470000000001  0.40112099999999984  1.0000
  C   C55       1.0  0.3878150000000001  0.002447000000000088  0.4357449999999998  1.0000
  C   C56       1.0  0.46207700000000035  0.983399  0.6717530000000003  1.0000
  C   C57       1.0  0.43058900000000017  0.903199  0.6394520000000005  1.0000
  C   C58       1.0  0.4868330000000001  0.8891300000000001  0.931078  1.0000
  C   C59       1.0  0.9676240000000002  0.46064599999999994  0.08897000000000022  1.0000
  C   C60       1.0  0.9932820000000001  0.541069  0.37172399999999994  1.0000
  C   C61       1.0  0.07337700000000003  0.593086  0.33758100000000013  1.0000
  C   C62       1.0  0.09820500000000013  0.647217  0.668599  1.0000
  C   C63       1.0  0.3121280000000002  0.496733  0.30111100000000013  1.0000
  C   C64       1.0  0.4310719999999999  0.580329  0.186871  1.0000
  C   C65       1.0  0.4545040000000001  0.53187  0.0899350000000001  1.0000
  C   C66       1.0  0.5831550000000003  0.61747  0.05619400000000008  1.0000
  H   H1        1.0  0.08704800000000004  0.8911339999999999  0.7020379999999999  1.0000
  H   H2        1.0  0.0813569999999999  0.26165499999999997  0.36393299999999984  1.0000
  H   H3        1.0  0.725051  0.896268  0.02465099999999998  1.0000
  H   H4        1.0  0.19376700000000002  0.820658  0.13657399999999997  1.0000
  H   H5        1.0  0.5451680000000001  0.800991  0.454586  1.0000
  H   H6        1.0  0.158512  0.43955099999999997  0.799168  1.0000
  H   H7        1.0  0.2095530000000001  0.92927  0.22587899999999997  1.0000
  H   H8        1.0  0.043137000000000196  0.34174400000000005  0.8934289999999998  1.0000
  H   H9        1.0  0.6358650000000001  0.7826830000000001  0.5549140000000006  1.0000
  H   H10       1.0  0.1880580000000003  0.9018580000000002  0.5734940000000002  1.0000
  H   H11       1.0  0.6328119999999999  0.793936  0.9006450000000001  1.0000
  H   H12       1.0  0.06399  0.349953  0.24375800000000017  1.0000
  H   H13       1.0  0.14807100000000006  0.9878249999999998  0.37158600000000025  1.0000
  H   H14       1.0  0.990527  0.22205199999999992  0.037113000000000174  1.0000
  H   H15       1.0  0.757305  0.841896  0.7001390000000001  1.0000
  H   H16       1.0  0.2438310000000002  0.837254  0.4313980000000006  1.0000
  H   H17       1.0  0.5106820000000004  0.734035  0.7579400000000001  1.0000
  H   H18       1.0  0.12955200000000014  0.469875  0.09978100000000013  1.0000
  H   H19       1.0  0.970888  0.86907  0.13106399999999985  1.0000
  H   H20       1.0  0.9844060000000001  0.714536  0.5087649999999999  1.0000
  H   H21       1.0  0.822165  0.796445  0.2647379999999999  1.0000
  H   H22       1.0  0.8547580000000001  0.764496  0.07590699999999996  1.0000
  H   H23       1.0  0.857093  0.846147  0.048589000000000215  1.0000
  H   H24       1.0  0.922107  0.799228  0.5062679999999999  1.0000
  H   H25       1.0  0.008497999999999853  0.841552  0.40828299999999995  1.0000
  H   H26       1.0  0.947101  0.743236  0.12471200000000016  1.0000
  H   H27       1.0  0.8824630000000001  0.695602  0.3044449999999999  1.0000
  H   H28       1.0  0.05866400000000028  0.743535  0.13457700000000017  1.0000
  H   H29       1.0  0.09248999999999993  0.740323  0.3660389999999998  1.0000
  H   H30       1.0  0.08163699999999993  0.812773  0.3047659999999999  1.0000
  H   H31       1.0  0.11725000000000009  0.15398899999999993  0.7776290000000007  1.0000
  H   H32       1.0  0.274622  0.348133  0.12001499999999998  1.0000
  H   H33       1.0  0.19529599999999991  0.10079600000000011  0.0013839999999998298  1.0000
  H   H34       1.0  0.22959600000000016  0.15372000000000008  0.7889930000000003  1.0000
  H   H35       1.0  0.15142900000000029  0.06869400000000003  0.7753220000000002  1.0000
  H   H36       1.0  0.18335300000000013  0.20753299999999997  0.1585809999999999  1.0000
  H   H37       1.0  0.13702200000000023  0.23672000000000004  0.013787999999999913  1.0000
  H   H38       1.0  0.2363850000000003  0.269053  0.7518590000000006  1.0000
  H   H39       1.0  0.28581499999999993  0.2578720000000001  0.9363280000000002  1.0000
  H   H40       1.0  0.23205699999999999  0.374144  0.7370210000000004  1.0000
  H   H41       1.0  0.25646100000000005  0.43145700000000003  0.9404340000000001  1.0000
  H   H42       1.0  0.17491999999999996  0.34887500000000005  0.9406980000000003  1.0000
  H   H43       1.0  0.719756  0.06962899999999994  0.3540920000000005  1.0000
  H   H44       1.0  0.8738560000000002  0.11520599999999992  0.6850290000000001  1.0000
  H   H45       1.0  0.5920920000000001  0.965043  0.5654370000000002  1.0000
  H   H46       1.0  0.6478110000000001  0.9406729999999999  0.43999900000000025  1.0000
  H   H47       1.0  0.6010040000000004  0.974163  0.3098169999999998  1.0000
  H   H48       1.0  0.689011  0.051066000000000056  0.7715550000000007  1.0000
  H   H49       1.0  0.7631700000000001  0.12488800000000011  0.6677580000000001  1.0000
  H   H50       1.0  0.744466  0.977252  0.6209560000000002  1.0000
  H   H51       1.0  0.775601  0.023473000000000077  0.8411170000000001  1.0000
  H   H52       1.0  0.8120660000000001  0.036977999999999955  0.3214549999999998  1.0000
  H   H53       1.0  0.903496  0.10245400000000005  0.34428700000000007  1.0000
  H   H54       1.0  0.83791  0.126919  0.372814  1.0000
  H   H55       1.0  0.49119800000000025  0.02430500000000002  0.3969100000000001  1.0000
  H   H56       1.0  0.3849259999999999  0.8698279999999999  0.9054180000000001  1.0000
  H   H57       1.0  0.355437  0.0018780000000000463  0.5587219999999999  1.0000
  H   H58       1.0  0.35810799999999987  0.9500159999999999  0.3644219999999998  1.0000
  H   H59       1.0  0.39200700000000027  0.0422260000000001  0.3322569999999998  1.0000
  H   H60       1.0  0.43387500000000023  0.9911959999999999  0.7936940000000001  1.0000
  H   H61       1.0  0.5182990000000002  0.008605999999999892  0.7154760000000002  1.0000
  H   H62       1.0  0.4656070000000004  0.8935590000000001  0.545817  1.0000
  H   H63       1.0  0.3789830000000004  0.8797870000000001  0.5649490000000004  1.0000
  H   H64       1.0  0.5234970000000001  0.879765  0.8445860000000001  1.0000
  H   H65       1.0  0.47661099999999995  0.8600270000000001  0.06683199999999978  1.0000
  H   H66       1.0  0.5126260000000004  0.9458869999999999  0.9651670000000002  1.0000
  H   H67       1.0  0.95211  0.545807  0.1073360000000001  1.0000
  H   H68       1.0  0.11496500000000003  0.569321  0.5696020000000002  1.0000
  H   H69       1.0  0.9590179999999999  0.416857  0.1840320000000002  1.0000
  H   H70       1.0  0.0225970000000002  0.48488800000000004  0.03283399999999981  1.0000
  H   H71       1.0  0.9306120000000001  0.4376399999999999  0.9656810000000002  1.0000
  H   H72       1.0  0.9866740000000003  0.4984  0.4690940000000001  1.0000
  H   H73       1.0  0.9695710000000001  0.568701  0.4450800000000004  1.0000
  H   H74       1.0  0.08071300000000005  0.641213  0.2683589999999998  1.0000
  H   H75       1.0  0.09456900000000011  0.569722  0.23656699999999997  1.0000
  H   H76       1.0  0.10815900000000014  0.699057  0.620746  1.0000
  H   H77       1.0  0.13137299999999996  0.656306  0.7972610000000002  1.0000
  H   H78       1.0  0.04191900000000007  0.614261  0.7096119999999999  1.0000
  H   H79       1.0  0.34012800000000026  0.532648  0.023699999999999832  1.0000
  H   H80       1.0  0.5342880000000003  0.545562  0.27514700000000003  1.0000
  H   H81       1.0  0.3176620000000004  0.520318  0.4455330000000002  1.0000
  H   H82       1.0  0.33098999999999995  0.45886799999999994  0.30953099999999983  1.0000
  H   H83       1.0  0.25559800000000005  0.4678939999999999  0.2616109999999998  1.0000
  H   H84       1.0  0.44167000000000006  0.584135  0.3439040000000002  1.0000
  H   H85       1.0  0.462462  0.63393  0.12955499999999986  1.0000
  H   H86       1.0  0.44870499999999996  0.533691  0.9312570000000004  1.0000
  H   H87       1.0  0.4184260000000002  0.476435  0.13097599999999998  1.0000
  H   H88       1.0  0.5769180000000003  0.618622  0.898042  1.0000
  H   H89       1.0  0.6354660000000003  0.623373  0.08417200000000014  1.0000
  H   H90       1.0  0.5835319999999999  0.664079  0.11790600000000007  1.0000
  N   N1        1.0  0.935045  0.8527300000000001  0.2432530000000002  1.0000
  N   N2        1.0  0.9845090000000001  0.712696  0.3604530000000002  1.0000
  N   N3        1.0  0.13429099999999994  0.1457759999999999  0.9085970000000001  1.0000
  N   N4        1.0  0.27211600000000025  0.344773  0.971992  1.0000
  N   N5        1.0  0.687009  0.05346999999999991  0.4717180000000001  1.0000
  N   N6        1.0  0.846338  0.06795700000000005  0.6105999999999998  1.0000
  N   N7        1.0  0.4591799999999999  0.023125000000000062  0.5064510000000002  1.0000
  N   N8        1.0  0.41923700000000014  0.8620750000000001  0.8210579999999998  1.0000
  N   N9        1.0  0.9509010000000001  0.508198  0.19618899999999995  1.0000
  N   N10       1.0  0.11992300000000002  0.614883  0.5135179999999999  1.0000
  N   N11       1.0  0.35346900000000014  0.554467  0.16068399999999983  1.0000
  N   N12       1.0  0.5274210000000001  0.548788  0.12972099999999998  1.0000
