data_image0
_chemical_formula_structural       Mg6O18C54H66N12
_chemical_formula_sum              "Mg6 O18 C54 H66 N12"
_cell_length_a       21.916
_cell_length_b       21.334826
_cell_length_c       6.992461
_cell_angle_alpha    90.628609
_cell_angle_beta     89.844315
_cell_angle_gamma    120.830193

_symmetry_space_group_name_H-M    'P 1'
_symmetry_Int_Tables_number       1

loop_
  _symmetry_equiv_pos_as_xyz
  'x,y,z'

loop_
  _atom_site_type_symbol
  _atom_site_label
  _atom_site_symmetry_multiplicity
  _atom_site_fract_x
  _atom_site_fract_y
  _atom_site_fract_z
  _atom_site_occupancy
  Mg  Mg1       1.0  0.919261  0.918115  0.053338999999999796  1.0000
  Mg  Mg2       1.0  0.965056  0.028493000000000105  0.7200169999999999  1.0000
  Mg  Mg3       1.0  0.857582  0.965227  0.38674399999999975  1.0000
  Mg  Mg4       1.0  0.199217  0.647185  0.08087499999999981  1.0000
  Mg  Mg5       1.0  0.311264  0.69959  0.40556499999999973  1.0000
  Mg  Mg6       1.0  0.24751900000000007  0.585724  0.7400209999999998  1.0000
  O   O1        1.0  0.0046710000000000276  0.971659  0.8584379999999997  1.0000
  O   O2        1.0  0.9155660000000001  0.06382500000000002  0.5331169999999994  1.0000
  O   O3        1.0  0.821251  0.8784180000000001  0.1907369999999999  1.0000
  O   O4        1.0  0.24882000000000007  0.733707  0.2737379999999998  1.0000
  O   O5        1.0  0.34383499999999995  0.649157  0.5997939999999998  1.0000
  O   O6        1.0  0.16282400000000033  0.549676  0.933452  1.0000
  O   O7        1.0  0.937167  0.9471580000000002  0.5087319999999997  1.0000
  O   O8        1.0  0.9378610000000002  0.01646000000000014  0.18321200000000015  1.0000
  O   O9        1.0  0.868729  0.946596  0.8423439999999999  1.0000
  O   O10       1.0  0.23059500000000033  0.6676920000000001  0.6192459999999996  1.0000
  O   O11       1.0  0.2986869999999999  0.6666340000000001  0.9530909999999996  1.0000
  O   O12       1.0  0.230459  0.597178  0.283687  1.0000
  O   O13       1.0  0.9706460000000001  0.899467  0.27210199999999984  1.0000
  O   O14       1.0  0.9757020000000002  0.09640200000000033  0.9434629999999996  1.0000
  O   O15       1.0  0.788776  0.912093  0.6053339999999997  1.0000
  O   O16       1.0  0.18446999999999994  0.701011  0.8589079999999998  1.0000
  O   O17       1.0  0.38105999999999995  0.7210470000000001  0.18377499999999977  1.0000
  O   O18       1.0  0.19375100000000003  0.514974  0.518484  1.0000
  C   C1        1.0  0.038168999999999946  0.941787  0.7710629999999998  1.0000
  C   C2        1.0  0.9436180000000001  0.12799300000000002  0.44568299999999933  1.0000
  C   C3        1.0  0.7582050000000002  0.844557  0.10258900000000004  1.0000
  C   C4        1.0  0.216372  0.7650250000000001  0.3584459999999994  1.0000
  C   C5        1.0  0.40731300000000004  0.680529  0.6837529999999998  1.0000
  C   C6        1.0  0.12671400000000024  0.48547200000000007  0.020000000000000014  1.0000
  C   C7        1.0  0.02663900000000006  0.917056  0.5755749999999998  1.0000
  C   C8        1.0  0.964194  0.13890200000000008  0.24838699999999966  1.0000
  C   C9        1.0  0.747201  0.856269  0.9072069999999998  1.0000
  C   C10       1.0  0.19557300000000005  0.7554010000000001  0.5554769999999998  1.0000
  C   C11       1.0  0.41953100000000043  0.7018550000000002  0.8817790000000001  1.0000
  C   C12       1.0  0.135937  0.47428900000000007  0.21741199999999947  1.0000
  C   C13       1.0  0.06281300000000001  0.883437  0.5008459999999997  1.0000
  C   C14       1.0  0.9952580000000004  0.20927700000000016  0.1706979999999998  1.0000
  C   C15       1.0  0.67787  0.820967  0.8311539999999997  1.0000
  C   C16       1.0  0.1618390000000001  0.791356  0.6312109999999996  1.0000
  C   C17       1.0  0.488176  0.73127  0.9588199999999999  1.0000
  C   C18       1.0  0.09540700000000021  0.404084  0.29531300000000016  1.0000
  C   C19       1.0  0.11079599999999992  0.873169  0.6073  1.0000
  C   C20       1.0  0.007514000000000236  0.27037900000000015  0.2763270000000002  1.0000
  C   C21       1.0  0.6178790000000001  0.7735430000000001  0.9364609999999997  1.0000
  C   C22       1.0  0.1467650000000001  0.8364820000000002  0.5229569999999995  1.0000
  C   C23       1.0  0.5462000000000002  0.74152  0.8508379999999999  1.0000
  C   C24       1.0  0.04559300000000001  0.343645  0.18963000000000016  1.0000
  C   C25       1.0  0.12290500000000008  0.899211  0.7986489999999997  1.0000
  C   C26       1.0  0.9851160000000001  0.25888600000000017  0.469287  1.0000
  C   C27       1.0  0.62923  0.759848  0.12677400000000016  1.0000
  C   C28       1.0  0.16716300000000014  0.8451390000000001  0.3283719999999999  1.0000
  C   C29       1.0  0.5340180000000001  0.722608  0.65439  1.0000
  C   C30       1.0  0.0365549999999999  0.355187  0.9954839999999997  1.0000
  C   C31       1.0  0.08821600000000009  0.9325340000000001  0.8769589999999999  1.0000
  C   C32       1.0  0.9539180000000003  0.1901740000000001  0.5505569999999994  1.0000
  C   C33       1.0  0.696922  0.793739  0.20633299999999943  1.0000
  C   C34       1.0  0.2009080000000001  0.811003  0.24921199999999996  1.0000
  C   C35       1.0  0.46707999999999994  0.693469  0.5733939999999996  1.0000
  C   C36       1.0  0.07569200000000009  0.423545  0.9134559999999997  1.0000
  C   C37       1.0  0.9755630000000002  0.921629  0.44400299999999987  1.0000
  C   C38       1.0  0.9587600000000001  0.0806340000000001  0.11715000000000009  1.0000
  C   C39       1.0  0.8047210000000001  0.9076810000000001  0.7772009999999999  1.0000
  C   C40       1.0  0.20425600000000024  0.705396  0.685904  1.0000
  C   C41       1.0  0.36314700000000016  0.6960460000000003  0.013879999999999892  1.0000
  C   C42       1.0  0.18974299999999997  0.532174  0.347931  1.0000
  C   C43       1.0  0.9223390000000002  0.774982  0.9565959999999997  1.0000
  C   C44       1.0  0.9154640000000002  0.716772  0.8133989999999999  1.0000
  C   C45       1.0  0.1019840000000003  0.1856549999999999  0.7177909999999998  1.0000
  C   C46       1.0  0.16094300000000006  0.25669699999999995  0.6290799999999998  1.0000
  C   C47       1.0  0.6643430000000002  0.9623820000000001  0.14450399999999952  1.0000
  C   C48       1.0  0.713956  0.964884  0.3022269999999998  1.0000
  C   C49       1.0  0.4685290000000002  0.942643  0.4904860000000002  1.0000
  C   C50       1.0  0.4043690000000002  0.8717840000000001  0.4158759999999994  1.0000
  C   C51       1.0  0.961169  0.544842  0.09708400000000016  1.0000
  C   C52       1.0  0.03914700000000003  0.584906  0.03650399999999987  1.0000
  C   C53       1.0  0.3398000000000001  0.512728  0.8986759999999998  1.0000
  C   C54       1.0  0.3711849999999999  0.505204  0.7093859999999999  1.0000
  H   H1        1.0  0.05050800000000001  0.863884  0.35351099999999963  1.0000
  H   H2        1.0  0.012200999999999906  0.21517300000000006  0.02237599999999995  1.0000
  H   H3        1.0  0.672235  0.834294  0.6849039999999996  1.0000
  H   H4        1.0  0.14660000000000004  0.781322  0.7811139999999999  1.0000
  H   H5        1.0  0.49475600000000025  0.746944  0.10945999999999988  1.0000
  H   H6        1.0  0.10630199999999988  0.397971  0.44356499999999993  1.0000
  H   H7        1.0  0.16121500000000014  0.893973  0.8857419999999999  1.0000
  H   H8        1.0  0.9917910000000001  0.304918  0.5553210000000001  1.0000
  H   H9        1.0  0.583857  0.721155  0.21183099999999963  1.0000
  H   H10       1.0  0.157327  0.880688  0.23933999999999986  1.0000
  H   H11       1.0  0.5778950000000002  0.7295370000000002  0.5654259999999998  1.0000
  H   H12       1.0  0.9972670000000001  0.309466  0.9090549999999996  1.0000
  H   H13       1.0  0.09768099999999988  0.9519830000000001  0.02481100000000014  1.0000
  H   H14       1.0  0.9360390000000001  0.181484  0.6987449999999997  1.0000
  H   H15       1.0  0.70524  0.782913  0.3530380000000002  1.0000
  H   H16       1.0  0.2173670000000001  0.818964  0.09987199999999995  1.0000
  H   H17       1.0  0.457628  0.67729  0.42297599999999974  1.0000
  H   H18       1.0  0.06813000000000004  0.432445  0.7643199999999998  1.0000
  H   H19       1.0  0.896454  0.829076  0.7599919999999997  1.0000
  H   H20       1.0  0.9627780000000001  0.680364  0.999493  1.0000
  H   H21       1.0  0.902664  0.751044  0.09810399999999973  1.0000
  H   H22       1.0  0.978734  0.816076  0.9752899999999998  1.0000
  H   H23       1.0  0.9284100000000002  0.740381  0.6693199999999998  1.0000
  H   H24       1.0  0.860214  0.670846  0.8077829999999997  1.0000
  H   H25       1.0  0.06298000000000004  0.1273740000000001  0.4646859999999999  1.0000
  H   H26       1.0  0.19488599999999992  0.315091  0.8816539999999999  1.0000
  H   H27       1.0  0.11960600000000014  0.1756150000000001  0.8549999999999999  1.0000
  H   H28       1.0  0.05739200000000011  0.19333599999999995  0.751342  1.0000
  H   H29       1.0  0.14326000000000016  0.26433799999999996  0.48858099999999943  1.0000
  H   H30       1.0  0.20952100000000007  0.25481599999999993  0.6039639999999997  1.0000
  H   H31       1.0  0.5811220000000001  0.8641360000000001  0.22833900000000007  1.0000
  H   H32       1.0  0.792238  0.9905810000000002  0.10116899999999962  1.0000
  H   H33       1.0  0.6742740000000002  0.01760000000000006  0.11820999999999991  1.0000
  H   H34       1.0  0.6771380000000002  0.9432940000000001  0.01084700000000005  1.0000
  H   H35       1.0  0.6975770000000001  0.908873  0.3428029999999995  1.0000
  H   H36       1.0  0.710148  0.992229  0.4316659999999998  1.0000
  H   H37       1.0  0.5124629999999999  0.997632  0.24239699999999995  1.0000
  H   H38       1.0  0.3678510000000001  0.8134510000000003  0.6670539999999997  1.0000
  H   H39       1.0  0.455352  0.9567780000000001  0.6303039999999999  1.0000
  H   H40       1.0  0.5130790000000003  0.9332289999999999  0.5123579999999999  1.0000
  H   H41       1.0  0.4151119999999999  0.859166  0.2711009999999998  1.0000
  H   H42       1.0  0.357677  0.877728  0.40411999999999976  1.0000
  H   H43       1.0  0.92157  0.566295  0.857242  1.0000
  H   H44       1.0  0.07742000000000003  0.564869  0.2837649999999998  1.0000
  H   H45       1.0  0.949639  0.49616  0.17854299999999987  1.0000
  H   H46       1.0  0.951962  0.579974  0.1963530000000002  1.0000
  H   H47       1.0  0.05239900000000028  0.63382  0.9545889999999999  1.0000
  H   H48       1.0  0.04782300000000016  0.549464  0.9396749999999997  1.0000
  H   H49       1.0  0.23779900000000032  0.453031  0.7947770000000001  1.0000
  H   H50       1.0  0.4523919999999999  0.497043  0.830154  1.0000
  H   H51       1.0  0.33873200000000003  0.47360800000000003  0.002229999999999954  1.0000
  H   H52       1.0  0.37424499999999994  0.567597  0.9589109999999998  1.0000
  H   H53       1.0  0.3669800000000001  0.540147  0.6022839999999995  1.0000
  H   H54       1.0  0.33877399999999996  0.44875600000000004  0.6557599999999998  1.0000
  H   H55       1.0  0.8311150000000002  0.7792030000000002  0.9054249999999997  1.0000
  H   H56       1.0  0.10944899999999991  0.10153100000000005  0.5886859999999997  1.0000
  H   H57       1.0  0.8124140000000002  0.05719399999999997  0.25311999999999957  1.0000
  H   H58       1.0  0.4314180000000001  0.8068880000000002  0.5656560000000002  1.0000
  H   H59       1.0  0.08976600000000003  0.647083  0.2793409999999996  1.0000
  H   H60       1.0  0.24324900000000008  0.49278  0.9995369999999999  1.0000
  H   H61       1.0  0.013994000000000078  0.727617  0.8224769999999996  1.0000
  H   H62       1.0  0.519331  0.05151400000000006  0.41923799999999956  1.0000
  H   H63       1.0  0.1347179999999999  0.324541  0.7719879999999996  1.0000
  H   H64       1.0  0.5566800000000001  0.908704  0.0933679999999999  1.0000
  H   H65       1.0  0.864302  0.4884549999999999  0.9589519999999999  1.0000
  H   H66       1.0  0.47710300000000005  0.5788420000000001  0.7515409999999998  1.0000
  N   N1        1.0  0.885062  0.813675  0.9002529999999997  1.0000
  N   N2        1.0  0.962896  0.688731  0.855641  1.0000
  N   N3        1.0  0.07272900000000004  0.11738500000000031  0.601111  1.0000
  N   N4        1.0  0.17933299999999996  0.32147400000000004  0.7490229999999998  1.0000
  N   N5        1.0  0.5898270000000002  0.9154190000000001  0.20460599999999962  1.0000
  N   N6        1.0  0.789823  0.001676000000000011  0.24340500000000007  1.0000
  N   N7        1.0  0.48546600000000023  0.0021720000000000628  0.35638399999999976  1.0000
  N   N8        1.0  0.38586600000000004  0.807591  0.5363709999999998  1.0000
  N   N9        1.0  0.916486  0.521292  0.9242119999999999  1.0000
  N   N10       1.0  0.09140700000000025  0.608245  0.19550100000000012  1.0000
  N   N11       1.0  0.26758499999999996  0.501577  0.8689709999999997  1.0000
  N   N12       1.0  0.445646  0.524372  0.720965  1.0000
