data_image0
_chemical_formula_structural       In4O20C88H48
_chemical_formula_sum              "In4 O20 C88 H48"
_cell_length_a       10.904
_cell_length_b       15.974
_cell_length_c       12.394028
_cell_angle_alpha    90.0
_cell_angle_beta     90.120193
_cell_angle_gamma    90.0

_symmetry_space_group_name_H-M    'P 1'
_symmetry_Int_Tables_number       1

loop_
  _symmetry_equiv_pos_as_xyz
  'x,y,z'

loop_
  _atom_site_type_symbol
  _atom_site_label
  _atom_site_symmetry_multiplicity
  _atom_site_fract_x
  _atom_site_fract_y
  _atom_site_fract_z
  _atom_site_occupancy
  In  In1       1.0  0.8989070000000001  0.122464  0.7891849999999998  1.0000
  In  In2       1.0  0.898905  0.122464  0.28917399999999993  1.0000
  In  In3       1.0  0.898906  0.19332500000000005  0.03919199999999967  1.0000
  In  In4       1.0  0.898908  0.05158900000000011  0.5391789999999999  1.0000
  O   O1        1.0  0.7802500000000001  0.180127  0.902935  1.0000
  O   O2        1.0  0.017563999999999913  0.06478600000000002  0.675436  1.0000
  O   O3        1.0  0.01756599999999997  0.180127  0.17544800000000002  1.0000
  O   O4        1.0  0.7802480000000002  0.06478699999999993  0.4029229999999999  1.0000
  O   O5        1.0  0.004121999999999959  0.23977100000000007  0.7839079999999998  1.0000
  O   O6        1.0  0.793691  0.0051429999999998985  0.794463  1.0000
  O   O7        1.0  0.793692  0.239769  0.294451  1.0000
  O   O8        1.0  0.004121999999999959  0.0051440000000002595  0.28391900000000003  1.0000
  O   O9        1.0  0.16490300000000002  0.08061300000000005  0.054707000000000054  1.0000
  O   O10       1.0  0.632911  0.164301  0.523663  1.0000
  O   O11       1.0  0.632913  0.08061400000000019  0.02367399999999997  1.0000
  O   O12       1.0  0.16490099999999996  0.1643  0.5546969999999999  1.0000
  O   O13       1.0  0.998135  0.08922399999999998  0.9464029999999998  1.0000
  O   O14       1.0  0.799679  0.15569  0.631967  1.0000
  O   O15       1.0  0.799681  0.08922399999999998  0.1319779999999999  1.0000
  O   O16       1.0  0.998133  0.155689  0.4463929999999999  1.0000
  O   O17       1.0  0.004029999999999978  0.28906900000000013  0.956955  1.0000
  O   O18       1.0  0.793783  0.9558440000000002  0.621415  1.0000
  O   O19       1.0  0.793786  0.289068  0.12142600000000003  1.0000
  O   O20       1.0  0.0040279999999999205  0.955846  0.456945  1.0000
  C   C1        1.0  0.023624000000000093  0.2961220000000001  0.8556609999999999  1.0000
  C   C2        1.0  0.774189  0.9487910000000003  0.7227099999999999  1.0000
  C   C3        1.0  0.774192  0.296121  0.22272099999999992  1.0000
  C   C4        1.0  0.023620999999999896  0.9487920000000002  0.35565  1.0000
  C   C5        1.0  0.072546  0.37796400000000013  0.8184059999999997  1.0000
  C   C6        1.0  0.725268  0.866949  0.759965  1.0000
  C   C7        1.0  0.725269  0.37796400000000013  0.259975  1.0000
  C   C8        1.0  0.07254500000000008  0.866949  0.318396  1.0000
  C   C9        1.0  0.07646799999999998  0.39698  0.7078399999999998  1.0000
  C   C10       1.0  0.721346  0.8479330000000003  0.8705309999999999  1.0000
  C   C11       1.0  0.7213440000000001  0.39698  0.3705209999999999  1.0000
  C   C12       1.0  0.07647000000000004  0.847934  0.20785000000000006  1.0000
  C   C13       1.0  0.1044290000000001  0.054654999999999905  0.9765529999999998  1.0000
  C   C14       1.0  0.693384  0.19025800000000007  0.601818  1.0000
  C   C15       1.0  0.693386  0.054656000000000045  0.10182800000000003  1.0000
  C   C16       1.0  0.10442799999999998  0.19025800000000007  0.4765429999999999  1.0000
  C   C17       1.0  0.12093299999999997  0.4741050000000001  0.673773  1.0000
  C   C18       1.0  0.676881  0.770809  0.9045979999999998  1.0000
  C   C19       1.0  0.676879  0.474106  0.404587  1.0000
  C   C20       1.0  0.1209340000000001  0.7708070000000002  0.1737839999999999  1.0000
  C   C21       1.0  0.32337400000000005  0.765716  0.6340009999999999  1.0000
  C   C22       1.0  0.47444000000000003  0.4791980000000001  0.9443699999999998  1.0000
  C   C23       1.0  0.474438  0.7657130000000002  0.4443589999999999  1.0000
  C   C24       1.0  0.3233760000000001  0.4792  0.13401199999999977  1.0000
  C   C25       1.0  0.30311599999999994  0.895005  0.831761  1.0000
  C   C26       1.0  0.494697  0.349908  0.74661  1.0000
  C   C27       1.0  0.4947  0.8950030000000002  0.24662099999999995  1.0000
  C   C28       1.0  0.3031140000000001  0.34991  0.33174999999999993  1.0000
  C   C29       1.0  0.14385500000000007  0.980389  0.9126169999999998  1.0000
  C   C30       1.0  0.653959  0.264524  0.6657529999999998  1.0000
  C   C31       1.0  0.653962  0.980389  0.16576600000000008  1.0000
  C   C32       1.0  0.1438520000000001  0.264525  0.4126049999999999  1.0000
  C   C33       1.0  0.31302300000000005  0.61031  0.626222  1.0000
  C   C34       1.0  0.484791  0.634603  0.9521489999999999  1.0000
  C   C35       1.0  0.484789  0.610313  0.452138  1.0000
  C   C36       1.0  0.3130250000000001  0.634601  0.126233  1.0000
  C   C37       1.0  0.3580779999999999  0.534188  0.580699  1.0000
  C   C38       1.0  0.439736  0.7107250000000003  0.9976709999999999  1.0000
  C   C39       1.0  0.439739  0.534189  0.4976559999999999  1.0000
  C   C40       1.0  0.3580749999999999  0.7107250000000003  0.08071500000000009  1.0000
  C   C41       1.0  0.3584940000000001  0.6880630000000002  0.5847799999999999  1.0000
  C   C42       1.0  0.43932  0.55685  0.993591  1.0000
  C   C43       1.0  0.43931500000000007  0.6880630000000002  0.493583  1.0000
  C   C44       1.0  0.3584989999999999  0.55685  0.08478699999999993  1.0000
  C   C45       1.0  0.2686519999999999  0.9638650000000002  0.8941669999999998  1.0000
  C   C46       1.0  0.529161  0.2810490000000001  0.6842029999999998  1.0000
  C   C47       1.0  0.529162  0.9638650000000002  0.18421399999999988  1.0000
  C   C48       1.0  0.2686519999999999  0.2810490000000001  0.39415699999999987  1.0000
  C   C49       1.0  0.11192399999999993  0.437818  0.8940009999999998  1.0000
  C   C50       1.0  0.68589  0.807095  0.6843699999999999  1.0000
  C   C51       1.0  0.685891  0.43782  0.18437900000000004  1.0000
  C   C52       1.0  0.111923  0.8070930000000002  0.393992  1.0000
  C   C53       1.0  0.05522899999999997  0.925245  0.871762  1.0000
  C   C54       1.0  0.742585  0.319668  0.7066079999999999  1.0000
  C   C55       1.0  0.742589  0.9252440000000002  0.2066209999999997  1.0000
  C   C56       1.0  0.05522399999999995  0.31967  0.3717499999999999  1.0000
  C   C57       1.0  0.2141580000000001  0.8397730000000002  0.78956  1.0000
  C   C58       1.0  0.583656  0.4051410000000001  0.78881  1.0000
  C   C59       1.0  0.583652  0.83977  0.288802  1.0000
  C   C60       1.0  0.214162  0.4051430000000001  0.2895689999999997  1.0000
  C   C61       1.0  0.16763400000000006  0.53271  0.748594  1.0000
  C   C62       1.0  0.63018  0.7122040000000002  0.829776  1.0000
  C   C63       1.0  0.630175  0.532713  0.32976699999999987  1.0000
  C   C64       1.0  0.1676390000000001  0.712201  0.24860299999999969  1.0000
  C   C65       1.0  0.24768499999999993  0.7638090000000002  0.7274119999999997  1.0000
  C   C66       1.0  0.550129  0.4811040000000001  0.850959  1.0000
  C   C67       1.0  0.550127  0.763806  0.35094899999999996  1.0000
  C   C68       1.0  0.247687  0.481107  0.22742099999999985  1.0000
  C   C69       1.0  0.3636170000000001  0.8419990000000003  0.584842  1.0000
  C   C70       1.0  0.43419700000000006  0.402915  0.9935279999999997  1.0000
  C   C71       1.0  0.434199  0.841998  0.49351299999999987  1.0000
  C   C72       1.0  0.363615  0.402915  0.08485800000000009  1.0000
  C   C73       1.0  0.15960599999999991  0.513961  0.85929  1.0000
  C   C74       1.0  0.638207  0.730952  0.7190809999999999  1.0000
  C   C75       1.0  0.638209  0.513964  0.21909399999999965  1.0000
  C   C76       1.0  0.159605  0.7309490000000002  0.359277  1.0000
  C   C77       1.0  0.0898239999999999  0.855427  0.8120959999999999  1.0000
  C   C78       1.0  0.70799  0.3894860000000001  0.766274  1.0000
  C   C79       1.0  0.70799  0.8554250000000002  0.266286  1.0000
  C   C80       1.0  0.0898239999999999  0.3894880000000001  0.312085  1.0000
  C   C81       1.0  0.22621500000000005  0.611028  0.7116099999999999  1.0000
  C   C82       1.0  0.571599  0.6338850000000003  0.8667609999999999  1.0000
  C   C83       1.0  0.571595  0.6110320000000002  0.366751  1.0000
  C   C84       1.0  0.22621899999999995  0.633882  0.2116199999999997  1.0000
  C   C85       1.0  0.19879899999999995  0.6872000000000003  0.761731  1.0000
  C   C86       1.0  0.599015  0.557713  0.81664  1.0000
  C   C87       1.0  0.599013  0.687201  0.316628  1.0000
  C   C88       1.0  0.19880100000000003  0.557713  0.2617419999999999  1.0000
  H   H1        1.0  0.0451410000000001  0.350865  0.6493709999999999  1.0000
  H   H2        1.0  0.752673  0.894049  0.9289999999999998  1.0000
  H   H3        1.0  0.752673  0.350863  0.4289919999999999  1.0000
  H   H4        1.0  0.0451410000000001  0.8940510000000003  0.14937899999999968  1.0000
  H   H5        1.0  0.12109100000000007  0.4890750000000001  0.588139  1.0000
  H   H6        1.0  0.676723  0.7558380000000002  0.990231  1.0000
  H   H7        1.0  0.67672  0.4890760000000001  0.4902199999999999  1.0000
  H   H8        1.0  0.1210929999999999  0.7558380000000002  0.08814999999999973  1.0000
  H   H9        1.0  0.39992399999999995  0.8828250000000002  0.8167669999999998  1.0000
  H   H10       1.0  0.39789  0.362088  0.7616029999999998  1.0000
  H   H11       1.0  0.397893  0.8828260000000002  0.261614  1.0000
  H   H12       1.0  0.399921  0.362088  0.3167559999999999  1.0000
  H   H13       1.0  0.3278399999999999  0.47471400000000014  0.6134229999999999  1.0000
  H   H14       1.0  0.469974  0.7702000000000002  0.964948  1.0000
  H   H15       1.0  0.469972  0.47471200000000013  0.4649379999999999  1.0000
  H   H16       1.0  0.32784199999999997  0.770202  0.11343299999999966  1.0000
  H   H17       1.0  0.3377509999999999  0.005527000000000282  0.9281299999999998  1.0000
  H   H18       1.0  0.460063  0.23938700000000004  0.650241  1.0000
  H   H19       1.0  0.4600620000000001  0.005528999999999895  0.15024999999999977  1.0000
  H   H20       1.0  0.33775200000000005  0.23938500000000004  0.42812  1.0000
  H   H21       1.0  0.10765000000000002  0.4230040000000001  0.9795239999999997  1.0000
  H   H22       1.0  0.690164  0.8219100000000003  0.598846  1.0000
  H   H23       1.0  0.690166  0.423003  0.09885299999999984  1.0000
  H   H24       1.0  0.10764799999999998  0.8219110000000002  0.4795179999999999  1.0000
  H   H25       1.0  0.95889  0.937565  0.887051  1.0000
  H   H26       1.0  0.838924  0.3073490000000001  0.691319  1.0000
  H   H27       1.0  0.8389300000000001  0.9375660000000002  0.19132899999999986  1.0000
  H   H28       1.0  0.958884  0.307348  0.3870419999999999  1.0000
  H   H29       1.0  0.335237  0.9012340000000002  0.62013  1.0000
  H   H30       1.0  0.46257700000000007  0.343679  0.9582399999999998  1.0000
  H   H31       1.0  0.46257400000000004  0.901236  0.45822999999999997  1.0000
  H   H32       1.0  0.33524  0.343677  0.12014100000000004  1.0000
  H   H33       1.0  0.19513800000000003  0.558344  0.9180929999999998  1.0000
  H   H34       1.0  0.602675  0.6865690000000002  0.660278  1.0000
  H   H35       1.0  0.602677  0.558344  0.16028799999999996  1.0000
  H   H36       1.0  0.19513699999999992  0.6865700000000002  0.4180829999999999  1.0000
  H   H37       1.0  0.019849000000000006  0.813498  0.780248  1.0000
  H   H38       1.0  0.7779650000000001  0.4314150000000001  0.798123  1.0000
  H   H39       1.0  0.777964  0.8134990000000002  0.298112  1.0000
  H   H40       1.0  0.019849999999999923  0.431414  0.2802589999999998  1.0000
  H   H41       1.0  0.1366750000000001  0.6871960000000003  0.830366  1.0000
  H   H42       1.0  0.661139  0.557717  0.748005  1.0000
  H   H43       1.0  0.66114  0.6871960000000003  0.24801599999999976  1.0000
  H   H44       1.0  0.13667399999999996  0.557717  0.330354  1.0000
  H   H45       1.0  0.714328  0.14274200000000006  0.9316599999999998  1.0000
  H   H46       1.0  0.08348599999999995  0.10217199999999994  0.6467109999999999  1.0000
  H   H47       1.0  0.083488  0.14274200000000006  0.14672200000000002  1.0000
  H   H48       1.0  0.714326  0.10217199999999994  0.4316489999999999  1.0000
