data_image0
_chemical_formula_structural       Ga4O20C88H48
_chemical_formula_sum              "Ga4 O20 C88 H48"
_cell_length_a       11.1
_cell_length_b       15.1
_cell_length_c       12.3
_cell_angle_alpha    90.0
_cell_angle_beta     90.120003
_cell_angle_gamma    90.0

_symmetry_space_group_name_H-M    'P 1'
_symmetry_Int_Tables_number       1

loop_
  _symmetry_equiv_pos_as_xyz
  'x,y,z'

loop_
  _atom_site_type_symbol
  _atom_site_label
  _atom_site_symmetry_multiplicity
  _atom_site_fract_x
  _atom_site_fract_y
  _atom_site_fract_z
  _atom_site_occupancy
  Ga  Ga1       1.0  0.837791  0.12264500000000003  0.755108  1.0000
  Ga  Ga2       1.0  0.8378140000000002  0.124556  0.255127  1.0000
  Ga  Ga3       1.0  0.83726  0.180475  0.0045079999999999565  1.0000
  Ga  Ga4       1.0  0.8372420000000003  0.06670799999999999  0.504497  1.0000
  O   O1        1.0  0.740316  0.17666300000000004  0.866236  1.0000
  O   O2        1.0  0.9347880000000002  0.07015799999999994  0.642408  1.0000
  O   O3        1.0  0.9348100000000003  0.177031  0.14241900000000007  1.0000
  O   O4        1.0  0.740309  0.0705180000000003  0.366232  1.0000
  O   O5        1.0  0.941058  0.22572100000000006  0.7579140000000002  1.0000
  O   O6        1.0  0.7313580000000002  0.021435000000000096  0.74774  1.0000
  O   O7        1.0  0.731347  0.22575000000000003  0.247739  1.0000
  O   O8        1.0  0.9410520000000001  0.021460000000000035  0.257908  1.0000
  O   O9        1.0  0.09891600000000024  0.08846599999999995  0.029457999999999984  1.0000
  O   O10       1.0  0.574788  0.158667  0.47630500000000003  1.0000
  O   O11       1.0  0.574791  0.08851600000000005  0.9762920000000002  1.0000
  O   O12       1.0  0.09881099999999998  0.158724  0.529407  1.0000
  O   O13       1.0  0.9306400000000001  0.08787900000000004  0.923135  1.0000
  O   O14       1.0  0.741942  0.158853  0.584784  1.0000
  O   O15       1.0  0.741934  0.08833099999999994  0.08478300000000007  1.0000
  O   O16       1.0  0.930591  0.159311  0.423046  1.0000
  O   O17       1.0  0.9365160000000002  0.275029  0.9348280000000001  1.0000
  O   O18       1.0  0.7361140000000003  0.972139  0.5709  1.0000
  O   O19       1.0  0.7361130000000002  0.275046  0.07089999999999996  1.0000
  O   O20       1.0  0.936509  0.972159  0.434826  1.0000
  C   C1        1.0  0.958426  0.28352  0.833826  1.0000
  C   C2        1.0  0.713663  0.9637470000000001  0.671862  1.0000
  C   C3        1.0  0.7136760000000001  0.283444  0.17186600000000007  1.0000
  C   C4        1.0  0.958421  0.9636660000000002  0.333823  1.0000
  C   C5        1.0  0.01010599999999995  0.36767100000000014  0.7958950000000002  1.0000
  C   C6        1.0  0.6611280000000002  0.879819  0.709422  1.0000
  C   C7        1.0  0.661105  0.3673630000000001  0.20942200000000002  1.0000
  C   C8        1.0  0.01010100000000014  0.879514  0.295893  1.0000
  C   C9        1.0  0.01719699999999991  0.3835480000000001  0.68361  1.0000
  C   C10       1.0  0.6537360000000001  0.8637  0.8216330000000001  1.0000
  C   C11       1.0  0.6537370000000001  0.383492  0.321634  1.0000
  C   C12       1.0  0.017194000000000154  0.86364  0.183608  1.0000
  C   C13       1.0  0.039601999999999915  0.05932399999999993  0.951419  1.0000
  C   C14       1.0  0.633648  0.187422  0.555014  1.0000
  C   C15       1.0  0.633634  0.05977499999999991  0.05502600000000002  1.0000
  C   C16       1.0  0.03955200000000003  0.18786800000000006  0.4513430000000001  1.0000
  C   C17       1.0  0.06641300000000006  0.4620010000000001  0.646192  1.0000
  C   C18       1.0  0.604615  0.785081  0.858586  1.0000
  C   C19       1.0  0.6045980000000001  0.462105  0.35858600000000007  1.0000
  C   C20       1.0  0.06641999999999992  0.7851920000000002  0.14618599999999993  1.0000
  C   C21       1.0  0.26497200000000026  0.7674080000000002  0.598325  1.0000
  C   C22       1.0  0.406411  0.479804  0.905868  1.0000
  C   C23       1.0  0.406411  0.767388  0.405877  1.0000
  C   C24       1.0  0.26499399999999995  0.47978900000000013  0.0983210000000001  1.0000
  C   C25       1.0  0.24384999999999993  0.904024  0.797634  1.0000
  C   C26       1.0  0.4281870000000001  0.343476  0.706235  1.0000
  C   C27       1.0  0.428177  0.90371  0.206237  1.0000
  C   C28       1.0  0.24385400000000004  0.3431720000000001  0.297616  1.0000
  C   C29       1.0  0.08316200000000018  0.9857980000000001  0.8829300000000001  1.0000
  C   C30       1.0  0.589451  0.261078  0.62294  1.0000
  C   C31       1.0  0.5894370000000001  0.9861100000000003  0.12293500000000002  1.0000
  C   C32       1.0  0.0831470000000003  0.26139  0.38286700000000007  1.0000
  C   C33       1.0  0.2548980000000001  0.603034  0.592052  1.0000
  C   C34       1.0  0.416251  0.644134  0.911942  1.0000
  C   C35       1.0  0.416249  0.603056  0.411955  1.0000
  C   C36       1.0  0.25491299999999995  0.6441610000000002  0.09204600000000009  1.0000
  C   C37       1.0  0.2969750000000002  0.522409  0.544964  1.0000
  C   C38       1.0  0.3739080000000001  0.7247720000000002  0.958786  1.0000
  C   C39       1.0  0.37389700000000003  0.522421  0.45879600000000004  1.0000
  C   C40       1.0  0.2969790000000001  0.724783  0.04494799999999999  1.0000
  C   C41       1.0  0.29778600000000016  0.685112  0.548873  1.0000
  C   C42       1.0  0.37347500000000006  0.56208  0.955247  1.0000
  C   C43       1.0  0.373467  0.685112  0.455251  1.0000
  C   C44       1.0  0.2977800000000002  0.562082  0.048853000000000035  1.0000
  C   C45       1.0  0.20649800000000032  0.973601  0.863741  1.0000
  C   C46       1.0  0.4659510000000001  0.273756  0.640565  1.0000
  C   C47       1.0  0.46593700000000005  0.9734330000000002  0.14056800000000003  1.0000
  C   C48       1.0  0.20648899999999992  0.2735910000000001  0.36371  1.0000
  C   C49       1.0  0.04975100000000032  0.4314880000000001  0.8705480000000001  1.0000
  C   C50       1.0  0.621673  0.816215  0.634403  1.0000
  C   C51       1.0  0.621671  0.430979  0.1344050000000001  1.0000
  C   C52       1.0  0.04975200000000002  0.815698  0.370543  1.0000
  C   C53       1.0  0.9978610000000002  0.9277650000000002  0.838449  1.0000
  C   C54       1.0  0.674575  0.318713  0.6683710000000003  1.0000
  C   C55       1.0  0.674561  0.928476  0.16837400000000002  1.0000
  C   C56       1.0  0.9978590000000002  0.31944200000000006  0.338404  1.0000
  C   C57       1.0  0.15852200000000005  0.8448260000000002  0.7542550000000001  1.0000
  C   C58       1.0  0.513387  0.402313  0.750483  1.0000
  C   C59       1.0  0.5133760000000002  0.844873  0.250484  1.0000
  C   C60       1.0  0.15853699999999993  0.40238400000000013  0.25425300000000006  1.0000
  C   C61       1.0  0.11380799999999992  0.524158  0.7201950000000003  1.0000
  C   C62       1.0  0.557492  0.723097  0.784221  1.0000
  C   C63       1.0  0.557488  0.524095  0.284227  1.0000
  C   C64       1.0  0.11381900000000011  0.723036  0.2201869999999999  1.0000
  C   C65       1.0  0.1936070000000001  0.7653030000000002  0.693358  1.0000
  C   C66       1.0  0.478003  0.4819170000000001  0.811001  1.0000
  C   C67       1.0  0.477996  0.765271  0.311007  1.0000
  C   C68       1.0  0.19361500000000034  0.4818980000000001  0.19334099999999999  1.0000
  C   C69       1.0  0.3021499999999999  0.848481  0.548604  1.0000
  C   C70       1.0  0.36913000000000007  0.3987090000000001  0.9554860000000002  1.0000
  C   C71       1.0  0.369127  0.848481  0.455493  1.0000
  C   C72       1.0  0.3021480000000001  0.398713  0.048593000000000115  1.0000
  C   C73       1.0  0.101885  0.509018  0.832514  1.0000
  C   C74       1.0  0.569522  0.7385500000000003  0.671982  1.0000
  C   C75       1.0  0.5695050000000001  0.508637  0.17199000000000012  1.0000
  C   C76       1.0  0.10189500000000008  0.7381720000000003  0.33250500000000005  1.0000
  C   C77       1.0  0.03543100000000022  0.8570660000000002  0.7755170000000002  1.0000
  C   C78       1.0  0.6366800000000001  0.3896410000000001  0.730717  1.0000
  C   C79       1.0  0.636666  0.8575480000000001  0.23071799999999998  1.0000
  C   C80       1.0  0.03544300000000011  0.390144  0.275487  1.0000
  C   C81       1.0  0.17330099999999993  0.604553  0.680572  1.0000
  C   C82       1.0  0.498052  0.642618  0.8235830000000001  1.0000
  C   C83       1.0  0.49803800000000004  0.6045700000000002  0.32358700000000007  1.0000
  C   C84       1.0  0.17330800000000002  0.6426440000000002  0.180558  1.0000
  C   C85       1.0  0.14776499999999992  0.684988  0.730856  1.0000
  C   C86       1.0  0.523896  0.562187  0.773433  1.0000
  C   C87       1.0  0.523885  0.685  0.273442  1.0000
  C   C88       1.0  0.14778599999999997  0.5622110000000002  0.23085  1.0000
  H   H1        1.0  0.984631  0.333696  0.627047  1.0000
  H   H2        1.0  0.685992  0.9134560000000003  0.8784730000000002  1.0000
  H   H3        1.0  0.6859860000000001  0.333734  0.378473  1.0000
  H   H4        1.0  0.9846240000000002  0.9134910000000003  0.1270469999999999  1.0000
  H   H5        1.0  0.06910799999999996  0.4754310000000001  0.559374  1.0000
  H   H6        1.0  0.6017500000000001  0.7713490000000002  0.945337  1.0000
  H   H7        1.0  0.6017400000000002  0.475837  0.44533800000000007  1.0000
  H   H8        1.0  0.06911599999999997  0.771763  0.05936800000000009  1.0000
  H   H9        1.0  0.33921200000000007  0.8937430000000002  0.781194  1.0000
  H   H10       1.0  0.332695  0.354145  0.721692  1.0000
  H   H11       1.0  0.33268600000000004  0.893037  0.22169200000000003  1.0000
  H   H12       1.0  0.33921800000000024  0.3534590000000001  0.281189  1.0000
  H   H13       1.0  0.26852699999999996  0.459541  0.578909  1.0000
  H   H14       1.0  0.40219400000000005  0.7876190000000002  0.9246620000000001  1.0000
  H   H15       1.0  0.4021840000000001  0.459573  0.424674  1.0000
  H   H16       1.0  0.26853300000000013  0.787651  0.07889499999999994  1.0000
  H   H17       1.0  0.27136400000000016  0.01893199999999995  0.9000910000000001  1.0000
  H   H18       1.0  0.401342  0.228687  0.603367  1.0000
  H   H19       1.0  0.40132000000000007  0.01849699999999999  0.10337200000000002  1.0000
  H   H20       1.0  0.27135  0.22825700000000002  0.4000580000000001  1.0000
  H   H21       1.0  0.042102000000000306  0.418317  0.957163  1.0000
  H   H22       1.0  0.629607  0.829665  0.547866  1.0000
  H   H23       1.0  0.6295960000000002  0.41753  0.04786800000000003  1.0000
  H   H24       1.0  0.04210500000000028  0.828867  0.45715900000000004  1.0000
  H   H25       1.0  0.9027120000000002  0.9383190000000002  0.854233  1.0000
  H   H26       1.0  0.7697970000000002  0.307549  0.65373  1.0000
  H   H27       1.0  0.769782  0.939644  0.15373100000000006  1.0000
  H   H28       1.0  0.9027080000000002  0.3088900000000001  0.354176  1.0000
  H   H29       1.0  0.2747409999999999  0.9108780000000002  0.585087  1.0000
  H   H30       1.0  0.39641100000000007  0.336316  0.9189050000000001  1.0000
  H   H31       1.0  0.39641300000000007  0.910872  0.418913  1.0000
  H   H32       1.0  0.2747420000000001  0.336318  0.08508099999999996  1.0000
  H   H33       1.0  0.13770499999999997  0.5571580000000003  0.889727  1.0000
  H   H34       1.0  0.533903  0.6905470000000002  0.614495  1.0000
  H   H35       1.0  0.533891  0.556643  0.11450300000000004  1.0000
  H   H36       1.0  0.1377170000000001  0.6900320000000002  0.38971500000000003  1.0000
  H   H37       1.0  0.9698390000000002  0.811532  0.740815  1.0000
  H   H38       1.0  0.70209  0.434965  0.766112  1.0000
  H   H39       1.0  0.7020790000000001  0.812223  0.266107  1.0000
  H   H40       1.0  0.969862  0.43569200000000013  0.240796  1.0000
  H   H41       1.0  0.08866599999999991  0.6856110000000002  0.801264  1.0000
  H   H42       1.0  0.5833200000000001  0.561471  0.703238  1.0000
  H   H43       1.0  0.5833050000000001  0.685714  0.20324600000000004  1.0000
  H   H44       1.0  0.088684  0.561586  0.301254  1.0000
  H   H45       1.0  0.6659270000000002  0.143572  0.8879280000000003  1.0000
  H   H46       1.0  0.008512000000000077  0.10380600000000029  0.620517  1.0000
  H   H47       1.0  0.00854700000000008  0.14339100000000005  0.12054000000000009  1.0000
  H   H48       1.0  0.6659170000000001  0.10360500000000017  0.387909  1.0000
