data_image0
_chemical_formula_structural       TbO5C3HCHCHCHC5HC5HC3HCHCHCHCHCHCHCHCHO2TbO5C3HCHCHCHC5HC5HC3HCHCHCHCHCHCHCHCHO2TbO5C3HCHCHCHC5HC5HC3HCHCHCHCHCHCHCHCHO2TbO5C3HCHCHCHC5HC5HC3HCHCHCHCHCHCHCHCHO2
_chemical_formula_sum              "Tb4 O28 C108 H60"
_cell_length_a       8.0491
_cell_length_b       16.7053
_cell_length_c       27.17
_cell_angle_alpha    90.0
_cell_angle_beta     96.675
_cell_angle_gamma    90.0

_space_group_name_H-M_alt    "P 1"
_space_group_IT_number       1

loop_
  _space_group_symop_operation_xyz
  'x, y, z'

loop_
  _atom_site_type_symbol
  _atom_site_label
  _atom_site_symmetry_multiplicity
  _atom_site_fract_x
  _atom_site_fract_y
  _atom_site_fract_z
  _atom_site_occupancy
  Tb  Tb1       1.0  0.26113  0.51245  0.5183  1.0000
  O   O1        1.0  0.3955  0.0756  0.08403999999999999  1.0000
  O   O2        1.0  0.8372  0.8776  0.99767  1.0000
  O   O3        1.0  0.5098000000000003  0.0835  0.01367  1.0000
  O   O4        1.0  0.1163  0.8668  0.00257  1.0000
  O   O5        1.0  0.9666000000000003  0.4956  0.43743  1.0000
  C   C1        1.0  0.4863  0.1124  0.0568  1.0000
  C   C2        1.0  0.9621000000000001  0.759  0.031  1.0000
  C   C3        1.0  0.6373  0.2406  0.0409  1.0000
  H   H1        1.0  0.6401  0.2256  0.0081  1.0000
  C   C4        1.0  0.8204  0.7129  0.0216  1.0000
  H   H2        1.0  0.7348  0.7294  0.9978  1.0000
  C   C5        1.0  0.5544  0.2159  0.1214  1.0000
  H   H3        1.0  0.5004  0.1844  0.1428  1.0000
  C   C6        1.0  0.6251  0.2865  0.1378  1.0000
  H   H4        1.0  0.619  0.3016  0.1705  1.0000
  C   C7        1.0  0.0867  0.4983000000000001  0.41138  1.0000
  C   C8        1.0  0.9732  0.8411000000000002  0.0078  1.0000
  C   C9        1.0  0.046700000000000005  0.4967  0.3555  1.0000
  C   C10       1.0  0.5618  0.1903  0.0726  1.0000
  C   C11       1.0  0.0923  0.7325  0.0656  1.0000
  H   H5        1.0  0.1912  0.7616  0.0706  1.0000
  C   C12       1.0  0.9729000000000001  0.4904  0.2529  1.0000
  C   C13       1.0  0.9294  0.6174  0.0839  1.0000
  C   C14       1.0  0.7078  0.3377  0.107  1.0000
  C   C15       1.0  0.9055000000000002  0.5457  0.1159  1.0000
  C   C16       1.0  0.8038  0.6423  0.0471  1.0000
  H   H6        1.0  0.7085  0.611  0.0397  1.0000
  C   C17       1.0  0.9272  0.4861  0.1979  1.0000
  C   C18       1.0  0.7924  0.4122  0.1267  1.0000
  C   C19       1.0  0.8210000000000001  0.476  0.0961  1.0000
  H   H7        1.0  0.7848  0.4732  0.0624  1.0000
  C   C20       1.0  0.7079000000000002  0.3123  0.0575  1.0000
  H   H8        1.0  0.7569  0.3448  0.0354  1.0000
  C   C21       1.0  0.8516  0.4764  0.2835  1.0000
  H   H9        1.0  0.7437  0.4643  0.2694  1.0000
  C   C22       1.0  0.1339  0.5089  0.274  1.0000
  H   H10       1.0  0.2168  0.52  0.2539  1.0000
  C   C23       1.0  0.07530000000000003  0.6629  0.0925  1.0000
  H   H11       1.0  0.1612  0.6467  0.1163  1.0000
  C   C24       1.0  0.8854000000000002  0.4794999999999999  0.3352  1.0000
  H   H12       1.0  0.8014  0.4703  0.35529999999999995  1.0000
  C   C25       1.0  0.1716  0.5108  0.3257  1.0000
  H   H13       1.0  0.2801000000000001  0.5215  0.3399  1.0000
  C   C26       1.0  0.8466  0.4182  0.1778  1.0000
  H   H14       1.0  0.8278000000000002  0.3757  0.1985  1.0000
  C   C27       1.0  0.9592  0.5496  0.1666  1.0000
  H   H15       1.0  0.016400000000000012  0.5946  0.1797  1.0000
  O   O6        1.0  0.2387  0.5037  0.42784  1.0000
  O   O7        1.0  0.219  0.46700000000000014  0.4414  1.0000
  Tb  Tb2       1.0  0.73887  0.01245  0.9817  1.0000
  O   O8        1.0  0.6045  0.5756  0.41596  1.0000
  O   O9        1.0  0.16280000000000003  0.3776  0.50233  1.0000
  O   O10       1.0  0.4902  0.5835  0.48633  1.0000
  O   O11       1.0  0.8837  0.3668  0.49742999999999993  1.0000
  O   O12       1.0  0.0334  0.9956  0.06257  1.0000
  C   C28       1.0  0.5137  0.6124  0.4432  1.0000
  C   C29       1.0  0.03790000000000004  0.259  0.46900000000000003  1.0000
  C   C30       1.0  0.3627  0.7406  0.4591  1.0000
  H   H16       1.0  0.3599  0.7256000000000002  0.4919  1.0000
  C   C31       1.0  0.1796  0.2129  0.4784  1.0000
  H   H17       1.0  0.2652000000000001  0.22940000000000005  0.5022  1.0000
  C   C32       1.0  0.4456  0.7159  0.3786  1.0000
  H   H18       1.0  0.4996  0.6844  0.3572  1.0000
  C   C33       1.0  0.3749  0.7865  0.36219999999999997  1.0000
  H   H19       1.0  0.38099999999999995  0.8016  0.3295  1.0000
  C   C34       1.0  0.9133  0.9983  0.08862  1.0000
  C   C35       1.0  0.026799999999999987  0.3411  0.4922  1.0000
  C   C36       1.0  0.9533  0.9967  0.1445  1.0000
  C   C37       1.0  0.4382  0.6903  0.4274  1.0000
  C   C38       1.0  0.9077  0.2325  0.4344  1.0000
  H   H20       1.0  0.8088  0.2616  0.4294  1.0000
  C   C39       1.0  0.02709999999999999  0.9904  0.24709999999999996  1.0000
  C   C40       1.0  0.0706  0.1174  0.4161  1.0000
  C   C41       1.0  0.2922  0.8377  0.39299999999999996  1.0000
  C   C42       1.0  0.0945  0.045700000000000005  0.3841  1.0000
  C   C43       1.0  0.19619999999999999  0.1423  0.45289999999999997  1.0000
  H   H21       1.0  0.2915  0.111  0.46030000000000004  1.0000
  C   C44       1.0  0.0728  0.9861  0.3021  1.0000
  C   C45       1.0  0.2076  0.9122  0.3733  1.0000
  C   C46       1.0  0.17899999999999996  0.9759999999999999  0.4038999999999999  1.0000
  H   H22       1.0  0.2152  0.9732000000000001  0.4376  1.0000
  C   C47       1.0  0.2921  0.8123  0.44249999999999995  1.0000
  H   H23       1.0  0.2431  0.8448  0.4646  1.0000
  C   C48       1.0  0.1484  0.9763999999999999  0.21649999999999997  1.0000
  H   H24       1.0  0.2563  0.9643000000000002  0.23059999999999997  1.0000
  C   C49       1.0  0.8661  0.0089  0.226  1.0000
  H   H25       1.0  0.7832  0.02  0.2461  1.0000
  C   C50       1.0  0.9247  0.1629  0.4075  1.0000
  H   H26       1.0  0.8388  0.1467  0.3837  1.0000
  C   C51       1.0  0.1146  0.9794999999999999  0.1648  1.0000
  H   H27       1.0  0.1986  0.9703  0.1447  1.0000
  C   C52       1.0  0.8284  0.010800000000000002  0.1743  1.0000
  H   H28       1.0  0.7199  0.0215  0.1601  1.0000
  C   C53       1.0  0.1534  0.9182  0.3222  1.0000
  H   H29       1.0  0.17220000000000005  0.8757  0.3015  1.0000
  C   C54       1.0  0.0408  0.0496  0.3334  1.0000
  H   H30       1.0  0.9836  0.0946  0.3203  1.0000
  O   O13       1.0  0.7613  0.0037  0.07216  1.0000
  O   O14       1.0  0.781  0.9670000000000001  0.0586  1.0000
  Tb  Tb3       1.0  0.73887  0.48755  0.4817  1.0000
  O   O15       1.0  0.6045  0.9244  0.91596  1.0000
  O   O16       1.0  0.1628  0.12240000000000001  0.00233  1.0000
  O   O17       1.0  0.49019999999999997  0.9165  0.9863299999999999  1.0000
  O   O18       1.0  0.8837  0.1332  0.99743  1.0000
  O   O19       1.0  0.03339999999999999  0.5044  0.56257  1.0000
  C   C55       1.0  0.5137  0.8876  0.9431999999999999  1.0000
  C   C56       1.0  0.037899999999999955  0.241  0.969  1.0000
  C   C57       1.0  0.3627  0.7594  0.9591  1.0000
  H   H31       1.0  0.3599  0.7744  0.9919  1.0000
  C   C58       1.0  0.1796  0.2871  0.9784  1.0000
  H   H32       1.0  0.2652000000000001  0.2706  0.0022  1.0000
  C   C59       1.0  0.4456  0.7841000000000001  0.8786  1.0000
  H   H33       1.0  0.4996  0.8156  0.8572  1.0000
  C   C60       1.0  0.3749  0.7135  0.8622  1.0000
  H   H34       1.0  0.381  0.6984000000000002  0.8295  1.0000
  C   C61       1.0  0.9133  0.5017  0.58862  1.0000
  C   C62       1.0  0.026799999999999987  0.1589  0.9922  1.0000
  C   C63       1.0  0.9532999999999999  0.5033000000000001  0.6445  1.0000
  C   C64       1.0  0.4382  0.8097  0.9274  1.0000
  C   C65       1.0  0.9076999999999998  0.2675  0.9344  1.0000
  H   H35       1.0  0.8088  0.2384  0.9294  1.0000
  C   C66       1.0  0.027099999999999975  0.5096  0.7471  1.0000
  C   C67       1.0  0.07059999999999998  0.3826  0.9161  1.0000
  C   C68       1.0  0.2922  0.6623  0.893  1.0000
  C   C69       1.0  0.09449999999999999  0.4543  0.8841  1.0000
  C   C70       1.0  0.1962  0.3577  0.9529  1.0000
  H   H36       1.0  0.2915  0.389  0.9603  1.0000
  C   C71       1.0  0.07279999999999995  0.5139  0.8020999999999999  1.0000
  C   C72       1.0  0.2076  0.5878  0.8733000000000001  1.0000
  C   C73       1.0  0.17899999999999994  0.524  0.9039  1.0000
  H   H37       1.0  0.2152  0.5268  0.9376  1.0000
  C   C74       1.0  0.2921  0.6877  0.9425  1.0000
  H   H38       1.0  0.2431  0.6552  0.9646  1.0000
  C   C75       1.0  0.1484  0.5236  0.7165  1.0000
  H   H39       1.0  0.2563  0.5357  0.7306  1.0000
  C   C76       1.0  0.8661  0.4911  0.726  1.0000
  H   H40       1.0  0.7832  0.48  0.7461  1.0000
  C   C77       1.0  0.9246999999999999  0.3371  0.9075  1.0000
  H   H41       1.0  0.8387999999999999  0.3533000000000001  0.8836999999999999  1.0000
  C   C78       1.0  0.11460000000000005  0.5205  0.6648  1.0000
  H   H42       1.0  0.19859999999999994  0.5297  0.6447  1.0000
  C   C79       1.0  0.8283999999999999  0.4892000000000001  0.6743  1.0000
  H   H43       1.0  0.7199  0.4785  0.6601  1.0000
  C   C80       1.0  0.1534  0.5818  0.8222  1.0000
  H   H44       1.0  0.17220000000000005  0.6243  0.8015  1.0000
  C   C81       1.0  0.04079999999999999  0.4504  0.8334  1.0000
  H   H45       1.0  0.9836  0.4054000000000001  0.8202999999999999  1.0000
  O   O20       1.0  0.7613  0.4963000000000001  0.57216  1.0000
  O   O21       1.0  0.781  0.533  0.5586  1.0000
  Tb  Tb4       1.0  0.26113  0.98755  0.0183  1.0000
  O   O22       1.0  0.3955  0.4244000000000001  0.58404  1.0000
  O   O23       1.0  0.8372  0.6224000000000001  0.49767  1.0000
  O   O24       1.0  0.5098000000000003  0.4165  0.51367  1.0000
  O   O25       1.0  0.1163  0.6332000000000002  0.50257  1.0000
  O   O26       1.0  0.9666000000000002  0.0044  0.93743  1.0000
  C   C82       1.0  0.48630000000000007  0.3876  0.5568  1.0000
  C   C83       1.0  0.9621000000000001  0.7410000000000002  0.531  1.0000
  C   C84       1.0  0.6373  0.2594  0.5409  1.0000
  H   H46       1.0  0.6401  0.2744  0.5081  1.0000
  C   C85       1.0  0.8204000000000001  0.7871  0.5216  1.0000
  H   H47       1.0  0.7348000000000001  0.7706  0.4978  1.0000
  C   C86       1.0  0.5544  0.2841  0.6214  1.0000
  H   H48       1.0  0.5004  0.3156  0.6427999999999999  1.0000
  C   C87       1.0  0.6251  0.2135  0.6378  1.0000
  H   H49       1.0  0.619  0.1984  0.6705  1.0000
  C   C88       1.0  0.08670000000000003  0.0017  0.91138  1.0000
  C   C89       1.0  0.9732  0.6589  0.5078  1.0000
  C   C90       1.0  0.04670000000000003  0.0033  0.8555  1.0000
  C   C91       1.0  0.5618  0.3097  0.5726  1.0000
  C   C92       1.0  0.0923  0.7675  0.5656  1.0000
  H   H50       1.0  0.1912  0.7384000000000001  0.5706  1.0000
  C   C93       1.0  0.9729  0.0096  0.7529  1.0000
  C   C94       1.0  0.9294  0.8826  0.5839  1.0000
  C   C95       1.0  0.7078  0.1623  0.607  1.0000
  C   C96       1.0  0.9055000000000001  0.9543  0.6159  1.0000
  C   C97       1.0  0.8038000000000001  0.8577  0.5471  1.0000
  H   H51       1.0  0.7085  0.889  0.5397  1.0000
  C   C98       1.0  0.9271999999999999  0.0139  0.6979  1.0000
  C   C99       1.0  0.7924  0.0878  0.6266999999999999  1.0000
  C   C100      1.0  0.821  0.024  0.5961  1.0000
  H   H52       1.0  0.7848  0.0268  0.5624  1.0000
  C   C101      1.0  0.7079000000000002  0.1877  0.5575  1.0000
  H   H53       1.0  0.7569000000000001  0.1552  0.5354  1.0000
  C   C102      1.0  0.8516  0.0236  0.7835  1.0000
  H   H54       1.0  0.7437  0.0357  0.7694  1.0000
  C   C103      1.0  0.1339  0.9911000000000001  0.774  1.0000
  H   H55       1.0  0.21680000000000002  0.9799999999999999  0.7539  1.0000
  C   C104      1.0  0.07530000000000005  0.8371  0.5925  1.0000
  H   H56       1.0  0.1612  0.8533  0.6163  1.0000
  C   C105      1.0  0.8854000000000001  0.0205  0.8352  1.0000
  H   H57       1.0  0.8014  0.029700000000000004  0.8553  1.0000
  C   C106      1.0  0.17160000000000006  0.9892  0.8257  1.0000
  H   H58       1.0  0.28010000000000007  0.9785  0.8399  1.0000
  C   C107      1.0  0.8466  0.0818  0.6778  1.0000
  H   H59       1.0  0.8278  0.12429999999999998  0.6985  1.0000
  C   C108      1.0  0.9592  0.9504000000000001  0.6666  1.0000
  H   H60       1.0  0.016400000000000033  0.9054  0.6797000000000001  1.0000
  O   O27       1.0  0.23870000000000005  0.9963  0.92784  1.0000
  O   O28       1.0  0.21899999999999992  0.033  0.9413999999999999  1.0000
