data_image0
_chemical_formula_structural       CdSN3C2HCdSN3C2HCdSN3C2HCdSN3C2HCdSN3C2HCdSN3C2HCdSN3C2HCdSN3C2H
_chemical_formula_sum              "Cd8 S8 N24 C16 H8"
_cell_length_a       10.488
_cell_length_b       10.212
_cell_length_c       11.273
_cell_angle_alpha    90.0
_cell_angle_beta     92.89
_cell_angle_gamma    90.0

_symmetry_space_group_name_H-M    'P 1'
_symmetry_Int_Tables_number       1

loop_
  _symmetry_equiv_pos_as_xyz
  'x,y,z'

loop_
  _atom_site_type_symbol
  _atom_site_label
  _atom_site_symmetry_multiplicity
  _atom_site_fract_x
  _atom_site_fract_y
  _atom_site_fract_z
  _atom_site_occupancy
  Cd  Cd1       1.0  0.6340999999999999  0.13621  0.6066  1.0000
  S   S1        1.0  0.39839  0.14701  0.56416  1.0000
  N   N1        1.0  0.2909  0.9066000000000001  0.5712  1.0000
  N   N2        1.0  0.23659999999999998  0.8241  0.6518999999999999  1.0000
  N   N3        1.0  0.3107  0.9995  0.7493  1.0000
  C   C1        1.0  0.33379999999999993  0.0113  0.6324  1.0000
  C   C2        1.0  0.2509  0.8833  0.7555999999999998  1.0000
  H   H1        1.0  0.2226  0.8484  0.8258  1.0000
  Cd  Cd2       1.0  0.1341  0.63621  0.6066  1.0000
  S   S2        1.0  0.89839  0.64701  0.56416  1.0000
  N   N4        1.0  0.7909  0.4066  0.5712  1.0000
  N   N5        1.0  0.7365999999999998  0.3241  0.6518999999999999  1.0000
  N   N6        1.0  0.8107  0.49950000000000006  0.7493  1.0000
  C   C3        1.0  0.8338  0.5113  0.6324  1.0000
  C   C4        1.0  0.7509  0.38330000000000003  0.7555999999999998  1.0000
  H   H2        1.0  0.7225999999999999  0.3484  0.8258  1.0000
  Cd  Cd3       1.0  0.36589999999999995  0.13621  0.8934  1.0000
  S   S3        1.0  0.60161  0.14701  0.9358399999999998  1.0000
  N   N7        1.0  0.7091  0.9066000000000001  0.9288  1.0000
  N   N8        1.0  0.7633999999999999  0.8241  0.8480999999999999  1.0000
  N   N9        1.0  0.6893  0.9995  0.7507  1.0000
  C   C5        1.0  0.6661999999999999  0.0113  0.8676  1.0000
  C   C6        1.0  0.7491  0.8833  0.7443999999999998  1.0000
  H   H3        1.0  0.7773999999999999  0.8484  0.6741999999999999  1.0000
  Cd  Cd4       1.0  0.8658999999999999  0.63621  0.8934  1.0000
  S   S4        1.0  0.10161  0.64701  0.9358399999999998  1.0000
  N   N10       1.0  0.20909999999999998  0.4066  0.9288  1.0000
  N   N11       1.0  0.26339999999999997  0.3241  0.8480999999999999  1.0000
  N   N12       1.0  0.1893  0.49950000000000006  0.7507  1.0000
  C   C7        1.0  0.1662  0.5113  0.8676  1.0000
  C   C8        1.0  0.2491  0.38330000000000003  0.7443999999999998  1.0000
  H   H4        1.0  0.2774  0.3484  0.6741999999999999  1.0000
  Cd  Cd5       1.0  0.3659  0.86379  0.3933999999999999  1.0000
  S   S5        1.0  0.60161  0.85299  0.43583999999999995  1.0000
  N   N13       1.0  0.7091  0.0934  0.4288  1.0000
  N   N14       1.0  0.7633999999999999  0.1759  0.3481  1.0000
  N   N15       1.0  0.6893  0.0005  0.2506999999999999  1.0000
  C   C9        1.0  0.6661999999999999  0.9887000000000001  0.3675999999999999  1.0000
  C   C10       1.0  0.7491  0.11670000000000001  0.24439999999999998  1.0000
  H   H5        1.0  0.7773999999999999  0.1516  0.1742  1.0000
  Cd  Cd6       1.0  0.8658999999999999  0.36379  0.3933999999999999  1.0000
  S   S6        1.0  0.10161  0.3529900000000001  0.43583999999999995  1.0000
  N   N16       1.0  0.20909999999999998  0.5934  0.4288  1.0000
  N   N17       1.0  0.26339999999999997  0.6759  0.3481  1.0000
  N   N18       1.0  0.1893  0.5005  0.2506999999999999  1.0000
  C   C11       1.0  0.1662  0.4887000000000001  0.3675999999999999  1.0000
  C   C12       1.0  0.2491  0.6167  0.24439999999999998  1.0000
  H   H6        1.0  0.2774  0.6516  0.1742  1.0000
  Cd  Cd7       1.0  0.6340999999999999  0.86379  0.10659999999999997  1.0000
  S   S7        1.0  0.39839  0.85299  0.06416  1.0000
  N   N19       1.0  0.2909  0.0934  0.0712  1.0000
  N   N20       1.0  0.23659999999999998  0.1759  0.15189999999999998  1.0000
  N   N21       1.0  0.3107  0.0005  0.2493  1.0000
  C   C13       1.0  0.33379999999999993  0.9887000000000001  0.13239999999999996  1.0000
  C   C14       1.0  0.2509  0.11670000000000001  0.2556  1.0000
  H   H7        1.0  0.2226  0.1516  0.3257999999999999  1.0000
  Cd  Cd8       1.0  0.1341  0.36379  0.10659999999999997  1.0000
  S   S8        1.0  0.89839  0.3529900000000001  0.06416  1.0000
  N   N22       1.0  0.7909  0.5934  0.0712  1.0000
  N   N23       1.0  0.7365999999999998  0.6759  0.15189999999999998  1.0000
  N   N24       1.0  0.8107  0.5005  0.2493  1.0000
  C   C15       1.0  0.8338  0.4887000000000001  0.13239999999999996  1.0000
  C   C16       1.0  0.7509  0.6167  0.2556  1.0000
  H   H8        1.0  0.7225999999999999  0.6516  0.3257999999999999  1.0000
