data_image0
_chemical_formula_structural       OCa2S2O3C2OC2HCHOC2OC3HCHOCOCa2S2O3C2OC2HCHOC2OC3HCHOCOCa2S2O3C2OC2HCHOC2OC3HCHOCOCa2S2O3C2OC2HCHOC2OC3HCHOC
_chemical_formula_sum              "O32 Ca8 S8 C48 H16"
_cell_length_a       10.3014
_cell_length_b       14.4176
_cell_length_c       17.507
_cell_angle_alpha    90.0
_cell_angle_beta     94.809
_cell_angle_gamma    90.0

_symmetry_space_group_name_H-M    'P 1'
_symmetry_Int_Tables_number       1

loop_
  _symmetry_equiv_pos_as_xyz
  'x,y,z'

loop_
  _atom_site_type_symbol
  _atom_site_label
  _atom_site_symmetry_multiplicity
  _atom_site_fract_x
  _atom_site_fract_y
  _atom_site_fract_z
  _atom_site_occupancy
  O   O1        1.0  0.3996  0.0303  0.10969  1.0000
  Ca  Ca1       1.0  0.3893  0.15562  0.027789999999999995  1.0000
  Ca  Ca2       1.0  0.53044  0.39146999999999993  0.058969999999999995  1.0000
  S   S1        1.0  0.27123  0.2566  0.80191  1.0000
  S   S2        1.0  0.30331  0.93693  0.24388  1.0000
  O   O2        1.0  0.40929999999999994  0.30046  0.95469  1.0000
  O   O3        1.0  0.1304  0.1561  0.67923  1.0000
  O   O4        1.0  0.42850000000000005  0.4508  0.9355199999999999  1.0000
  C   C1        1.0  0.3786  0.8871  0.1699  1.0000
  C   C2        1.0  0.309  0.3637  0.8397  1.0000
  O   O5        1.0  0.065  0.27389  0.60474  1.0000
  C   C3        1.0  0.18199999999999994  0.3049  0.7249999999999998  1.0000
  C   C4        1.0  0.2547  0.4335  0.7938  1.0000
  H   H1        1.0  0.2652  0.4963  0.8049  1.0000
  C   C5        1.0  0.18210000000000004  0.3994  0.7288  1.0000
  H   H2        1.0  0.13839999999999994  0.4372  0.6920999999999998  1.0000
  O   O6        1.0  0.2247  0.7444  0.39012  1.0000
  C   C6        1.0  0.386  0.3715  0.9143  1.0000
  C   C7        1.0  0.1207  0.24089999999999995  0.6659  1.0000
  O   O7        1.0  0.1612  0.8919999999999999  0.38117  1.0000
  C   C8        1.0  0.42790000000000006  0.9464  0.109  1.0000
  C   C9        1.0  0.281  0.8304  0.2848  1.0000
  C   C10       1.0  0.3286  0.7611  0.2427  1.0000
  H   H3        1.0  0.325  0.6988  0.2561  1.0000
  C   C11       1.0  0.3836  0.7932  0.1772  1.0000
  H   H4        1.0  0.4198  0.7542999999999997  0.1422  1.0000
  O   O8        1.0  0.49240000000000006  0.9068  0.061579999999999996  1.0000
  C   C12       1.0  0.21619999999999998  0.8216  0.3577  1.0000
  O   O9        1.0  0.10039999999999999  0.5303  0.39031  1.0000
  Ca  Ca3       1.0  0.1107  0.65562  0.47221  1.0000
  Ca  Ca4       1.0  0.96956  0.89147  0.44103  1.0000
  S   S3        1.0  0.22877  0.7565999999999998  0.69809  1.0000
  S   S4        1.0  0.19669  0.43693  0.25612  1.0000
  O   O10       1.0  0.0907  0.80046  0.54531  1.0000
  O   O11       1.0  0.3696  0.6561  0.82077  1.0000
  O   O12       1.0  0.0715  0.9508  0.56448  1.0000
  C   C13       1.0  0.1214  0.3871  0.3301  1.0000
  C   C14       1.0  0.191  0.8636999999999998  0.6603  1.0000
  O   O13       1.0  0.43500000000000005  0.77389  0.89526  1.0000
  C   C15       1.0  0.318  0.8049  0.775  1.0000
  C   C16       1.0  0.2453  0.9334999999999998  0.7061999999999999  1.0000
  H   H5        1.0  0.23480000000000004  0.9962999999999999  0.6951  1.0000
  C   C17       1.0  0.3179  0.8994  0.7711999999999998  1.0000
  H   H6        1.0  0.3616  0.9372  0.8079  1.0000
  O   O14       1.0  0.2753  0.2444  0.10987999999999998  1.0000
  C   C18       1.0  0.11400000000000002  0.8715  0.5857  1.0000
  C   C19       1.0  0.37929999999999997  0.7408999999999998  0.8340999999999998  1.0000
  O   O15       1.0  0.3388  0.392  0.11882999999999999  1.0000
  C   C20       1.0  0.0721  0.4463999999999999  0.391  1.0000
  C   C21       1.0  0.21899999999999997  0.33039999999999997  0.2152  1.0000
  C   C22       1.0  0.1714  0.2611  0.2573  1.0000
  H   H7        1.0  0.175  0.19879999999999998  0.2439  1.0000
  C   C23       1.0  0.1164  0.2931999999999999  0.3227999999999999  1.0000
  H   H8        1.0  0.0802  0.2543  0.3578  1.0000
  O   O16       1.0  0.007600000000000008  0.4068  0.43842  1.0000
  C   C24       1.0  0.2838  0.3216  0.1423  1.0000
  O   O17       1.0  0.6004  0.9697  0.89031  1.0000
  Ca  Ca5       1.0  0.6107  0.84438  0.97221  1.0000
  Ca  Ca6       1.0  0.46956  0.60853  0.94103  1.0000
  S   S5        1.0  0.72877  0.7434  0.19808999999999996  1.0000
  S   S6        1.0  0.69669  0.06307  0.7561199999999998  1.0000
  O   O18       1.0  0.5907  0.6995399999999998  0.04531  1.0000
  O   O19       1.0  0.8696  0.8438999999999998  0.32077  1.0000
  O   O20       1.0  0.5715  0.5492  0.06448  1.0000
  C   C25       1.0  0.6213999999999998  0.1129  0.8300999999999997  1.0000
  C   C26       1.0  0.691  0.6363  0.1603  1.0000
  O   O21       1.0  0.9350000000000002  0.72611  0.39526  1.0000
  C   C27       1.0  0.8180000000000001  0.6951  0.275  1.0000
  C   C28       1.0  0.7453  0.5665  0.2062  1.0000
  H   H9        1.0  0.7348  0.5037  0.19509999999999997  1.0000
  C   C29       1.0  0.8179  0.6006  0.2712  1.0000
  H   H10       1.0  0.8616000000000001  0.5628  0.3079  1.0000
  O   O22       1.0  0.7753  0.2556  0.6098799999999999  1.0000
  C   C30       1.0  0.614  0.6285  0.0857  1.0000
  C   C31       1.0  0.8792999999999999  0.7591  0.3341  1.0000
  O   O23       1.0  0.8388  0.108  0.61883  1.0000
  C   C32       1.0  0.5721  0.0536  0.8909999999999998  1.0000
  C   C33       1.0  0.7189999999999999  0.1696  0.7151999999999997  1.0000
  C   C34       1.0  0.6714  0.23889999999999997  0.7573  1.0000
  H   H11       1.0  0.675  0.3012  0.7439  1.0000
  C   C35       1.0  0.6164  0.2068  0.8228  1.0000
  H   H12       1.0  0.5802  0.2457  0.8577999999999998  1.0000
  O   O24       1.0  0.5076  0.0932  0.9384199999999999  1.0000
  C   C36       1.0  0.7838  0.17839999999999995  0.6423  1.0000
  O   O25       1.0  0.8996  0.4696999999999999  0.60969  1.0000
  Ca  Ca7       1.0  0.8893000000000001  0.34437999999999996  0.52779  1.0000
  Ca  Ca8       1.0  0.030440000000000005  0.10853  0.55897  1.0000
  S   S7        1.0  0.77123  0.2434  0.30191  1.0000
  S   S8        1.0  0.80331  0.56307  0.74388  1.0000
  O   O26       1.0  0.9093  0.19954  0.45469  1.0000
  O   O27       1.0  0.6304  0.3439  0.17923  1.0000
  O   O28       1.0  0.9285  0.0492  0.43552  1.0000
  C   C37       1.0  0.8786  0.6128999999999999  0.6699  1.0000
  C   C38       1.0  0.8089999999999999  0.1363  0.3396999999999999  1.0000
  O   O29       1.0  0.565  0.22611  0.10474  1.0000
  C   C39       1.0  0.682  0.1951  0.225  1.0000
  C   C40       1.0  0.7547  0.0665  0.2937999999999999  1.0000
  H   H13       1.0  0.7652  0.0037  0.30489999999999995  1.0000
  C   C41       1.0  0.6821000000000002  0.1006  0.22879999999999998  1.0000
  H   H14       1.0  0.6384  0.0628  0.1921  1.0000
  O   O30       1.0  0.7247  0.7556  0.89012  1.0000
  C   C42       1.0  0.8860000000000001  0.1285  0.41429999999999995  1.0000
  C   C43       1.0  0.6207  0.2591  0.1659  1.0000
  O   O31       1.0  0.6612  0.608  0.88117  1.0000
  C   C44       1.0  0.9279000000000001  0.5536  0.609  1.0000
  C   C45       1.0  0.781  0.6696  0.7848  1.0000
  C   C46       1.0  0.8285999999999999  0.7389  0.7427  1.0000
  H   H15       1.0  0.825  0.8012  0.7561  1.0000
  C   C47       1.0  0.8835999999999999  0.7068  0.6772  1.0000
  H   H16       1.0  0.9198000000000001  0.7457  0.6422  1.0000
  O   O32       1.0  0.9924  0.5932  0.56158  1.0000
  C   C48       1.0  0.7161999999999998  0.6784  0.8577  1.0000
