data_image0
_chemical_formula_structural       CdCHCHCHCH2C2HC2H3CHC3H3CH2CHCHCHN4OCdCHCHCHCH2C2HC2H3CHC3H3CH2CHCHCHN4OCdCHCHCHCH2C2HC2H3CHC3H3CH2CHCHCHN4OCdCHCHCHCH2C2HC2H3CHC3H3CH2CHCHCHN4OC2CdCHCHCHCH2C2HC2H3CHC3H3CH2CHCHCHN4OCdCHCHCHCH2C2HC2H3CHC3H3CH2CHCHCHN4OCdCHCHCHCH2C2HC2H3CHC3H3CH2CHCHCHN4OCdCHCHCHCH2C2HC2H3CHC3H3CH2CHCHCHN4OC2
_chemical_formula_sum              "Cd8 C132 H144 N32 O8"
_cell_length_a       17.811
_cell_length_b       19.155
_cell_length_c       14.683
_cell_angle_alpha    90.0
_cell_angle_beta     90.0
_cell_angle_gamma    90.0

_space_group_name_H-M_alt    "P 1"
_space_group_IT_number       1

loop_
  _space_group_symop_operation_xyz
  'x, y, z'

loop_
  _atom_site_type_symbol
  _atom_site_label
  _atom_site_symmetry_multiplicity
  _atom_site_fract_x
  _atom_site_fract_y
  _atom_site_fract_z
  _atom_site_occupancy
  Cd  Cd1       1.0  0.25713  0.9696299999999999  0.62898  1.0000
  C   C1        1.0  0.4346  0.0188  0.6200000000000002  1.0000
  H   H1        1.0  0.4231  0.06589999999999999  0.6130000000000002  1.0000
  C   C2        1.0  0.5052  0.9919999999999998  0.6247  1.0000
  H   H2        1.0  0.5502  0.0167  0.6228  1.0000
  C   C3        1.0  0.4236  0.9076999999999998  0.6327  1.0000
  H   H3        1.0  0.4032  0.8631  0.6362000000000002  1.0000
  C   C4        1.0  0.5585  0.8681  0.6326000000000003  1.0000
  H   H4        1.0  0.5539  0.8381999999999998  0.6856000000000002  1.0000
  H   H5        1.0  0.6067  0.8915999999999998  0.6356  1.0000
  C   C5        1.0  0.5544  0.8247  0.5471000000000003  1.0000
  C   C6        1.0  0.5829  0.8491999999999998  0.4658  1.0000
  H   H6        1.0  0.6086  0.8914  0.4658  1.0000
  C   C7        1.0  0.5751  0.8134999999999998  0.38440000000000013  1.0000
  C   C8        1.0  0.6054  0.8435  0.2944  1.0000
  H   H7        1.0  0.5692  0.8751999999999999  0.269  1.0000
  H   H8        1.0  0.6145  0.8061999999999998  0.2522  1.0000
  H   H9        1.0  0.6515  0.868  0.3058  1.0000
  C   C9        1.0  0.536  0.749  0.3859  1.0000
  H   H10       1.0  0.5289  0.7244  0.33200000000000013  1.0000
  C   C10       1.0  0.5083  0.7222  0.4673000000000001  1.0000
  C   C11       1.0  0.5173  0.7584  0.5469000000000003  1.0000
  C   C12       1.0  0.5424  0.6922  0.6804  1.0000
  H   H11       1.0  0.577  0.7233  0.7113  1.0000
  H   H12       1.0  0.571  0.6622  0.6401000000000002  1.0000
  H   H13       1.0  0.4646  0.6183  0.7183000000000003  1.0000
  C   C13       1.0  0.4728  0.6492  0.46500000000000014  1.0000
  H   H14       1.0  0.4578  0.6358999999999999  0.5261000000000002  1.0000
  H   H15       1.0  0.4282  0.6500999999999998  0.4271000000000001  1.0000
  C   C14       1.0  0.602  0.5992  0.433  1.0000
  H   H16       1.0  0.6287  0.6346999999999999  0.46150000000000013  1.0000
  C   C15       1.0  0.5752  0.5073  0.36020000000000013  1.0000
  H   H17       1.0  0.5798  0.46639999999999987  0.3266  1.0000
  C   C16       1.0  0.5102  0.5370999999999999  0.3839000000000001  1.0000
  H   H18       1.0  0.4624  0.5198999999999999  0.3718000000000001  1.0000
  N   N1        1.0  0.383  0.9659  0.6270000000000002  1.0000
  N   N2        1.0  0.4968  0.9211  0.6329  1.0000
  N   N3        1.0  0.5266  0.5969  0.4286000000000001  1.0000
  N   N4        1.0  0.6335  0.5455999999999999  0.39240000000000014  1.0000
  O   O1        1.0  0.4886  0.7323999999999998  0.6284000000000001  1.0000
  Cd  Cd2       1.0  0.24287000000000003  0.53037  0.12898  1.0000
  C   C17       1.0  0.0654  0.4812  0.12000000000000002  1.0000
  H   H19       1.0  0.0769  0.4340999999999999  0.113  1.0000
  C   C18       1.0  0.9948  0.508  0.12470000000000003  1.0000
  H   H20       1.0  0.9497999999999999  0.4833  0.1228  1.0000
  C   C19       1.0  0.0764  0.5922999999999998  0.1327  1.0000
  H   H21       1.0  0.0968  0.6368999999999998  0.1362  1.0000
  C   C20       1.0  0.9415000000000001  0.6318999999999999  0.1326  1.0000
  H   H22       1.0  0.9461  0.6618  0.18560000000000004  1.0000
  H   H23       1.0  0.8933  0.6084  0.1356  1.0000
  C   C21       1.0  0.9456  0.6752999999999999  0.04710000000000002  1.0000
  C   C22       1.0  0.9170999999999999  0.6507999999999998  0.9658000000000002  1.0000
  H   H24       1.0  0.8914  0.6086  0.9658000000000002  1.0000
  C   C23       1.0  0.9249  0.6865  0.8844  1.0000
  C   C24       1.0  0.8946  0.6565  0.7944  1.0000
  H   H25       1.0  0.9308  0.6247999999999999  0.769  1.0000
  H   H26       1.0  0.8855  0.6938  0.7522  1.0000
  H   H27       1.0  0.8485  0.632  0.8058000000000002  1.0000
  C   C25       1.0  0.964  0.7509999999999999  0.8859000000000001  1.0000
  H   H28       1.0  0.9711  0.7755999999999997  0.8320000000000002  1.0000
  C   C26       1.0  0.9917  0.7778  0.9673000000000003  1.0000
  C   C27       1.0  0.9827000000000001  0.7415999999999998  0.04690000000000001  1.0000
  C   C28       1.0  0.9576  0.8078  0.18040000000000006  1.0000
  H   H29       1.0  0.923  0.7766999999999998  0.2113  1.0000
  H   H30       1.0  0.929  0.8378  0.14010000000000003  1.0000
  H   H31       1.0  0.0354  0.8817  0.21830000000000005  1.0000
  C   C29       1.0  0.0272  0.8508  0.965  1.0000
  H   H32       1.0  0.0422  0.8640999999999999  0.02610000000000001  1.0000
  H   H33       1.0  0.0718  0.8498999999999999  0.9271000000000003  1.0000
  C   C30       1.0  0.898  0.9008  0.9330000000000003  1.0000
  H   H34       1.0  0.8713  0.8652999999999998  0.9615000000000002  1.0000
  C   C31       1.0  0.9248  0.9926999999999998  0.8602  1.0000
  H   H35       1.0  0.9202  0.03359999999999999  0.8266000000000001  1.0000
  C   C32       1.0  0.9897999999999999  0.9629  0.8839  1.0000
  H   H36       1.0  0.0376  0.9801  0.8718  1.0000
  N   N5        1.0  0.11700000000000002  0.5341  0.127  1.0000
  N   N6        1.0  0.0032  0.5788999999999997  0.1329  1.0000
  N   N7        1.0  0.9734  0.9031  0.9286000000000002  1.0000
  N   N8        1.0  0.8665  0.9544  0.8924  1.0000
  O   O2        1.0  0.0114  0.7676  0.1284  1.0000
  Cd  Cd3       1.0  0.74287  0.9696299999999999  0.8710200000000002  1.0000
  C   C33       1.0  0.5654  0.0188  0.88  1.0000
  H   H37       1.0  0.5769  0.06589999999999999  0.8870000000000002  1.0000
  C   C34       1.0  0.4948  0.9919999999999998  0.8753000000000002  1.0000
  H   H38       1.0  0.4498  0.0167  0.8772000000000002  1.0000
  C   C35       1.0  0.5764  0.9076999999999998  0.8673000000000002  1.0000
  H   H39       1.0  0.5968  0.8631  0.8638  1.0000
  C   C36       1.0  0.4415  0.8681  0.8674  1.0000
  H   H40       1.0  0.4461  0.8381999999999998  0.8144  1.0000
  H   H41       1.0  0.3933  0.8915999999999998  0.8644000000000002  1.0000
  C   C37       1.0  0.4456  0.8247  0.9529  1.0000
  C   C38       1.0  0.4171  0.8491999999999998  0.0342  1.0000
  H   H42       1.0  0.3914  0.8914  0.0342  1.0000
  C   C39       1.0  0.4249  0.8134999999999998  0.1156  1.0000
  C   C40       1.0  0.3946  0.8435  0.2056  1.0000
  H   H43       1.0  0.4308  0.8751999999999999  0.23100000000000007  1.0000
  H   H44       1.0  0.3855  0.8061999999999998  0.24780000000000005  1.0000
  H   H45       1.0  0.3485  0.868  0.19420000000000007  1.0000
  C   C41       1.0  0.4640000000000001  0.749  0.11410000000000002  1.0000
  H   H46       1.0  0.4711  0.7244  0.16800000000000007  1.0000
  C   C42       1.0  0.4917  0.7222  0.032700000000000014  1.0000
  C   C43       1.0  0.48269999999999996  0.7584  0.9531  1.0000
  C   C44       1.0  0.4576  0.6922  0.8196000000000002  1.0000
  H   H47       1.0  0.423  0.7233  0.7887000000000002  1.0000
  H   H48       1.0  0.429  0.6622  0.8599  1.0000
  H   H49       1.0  0.5354  0.6183  0.7817000000000002  1.0000
  C   C45       1.0  0.5272  0.6492  0.03500000000000002  1.0000
  H   H50       1.0  0.5422  0.6358999999999999  0.9739  1.0000
  H   H51       1.0  0.5718  0.6500999999999998  0.07290000000000003  1.0000
  C   C46       1.0  0.398  0.5992  0.067  1.0000
  H   H52       1.0  0.3713  0.6346999999999999  0.0385  1.0000
  C   C47       1.0  0.4248  0.5073  0.13980000000000006  1.0000
  H   H53       1.0  0.4202  0.46639999999999987  0.17340000000000005  1.0000
  C   C48       1.0  0.4898  0.5370999999999999  0.11610000000000002  1.0000
  H   H54       1.0  0.5376  0.5198999999999999  0.12820000000000006  1.0000
  N   N9        1.0  0.617  0.9659  0.873  1.0000
  N   N10       1.0  0.5032  0.9211  0.8671000000000002  1.0000
  N   N11       1.0  0.4734  0.5969  0.0714  1.0000
  N   N12       1.0  0.3665  0.5455999999999999  0.10760000000000003  1.0000
  O   O3        1.0  0.5114  0.7323999999999998  0.8716  1.0000
  Cd  Cd4       1.0  0.75713  0.53037  0.3710200000000001  1.0000
  C   C49       1.0  0.9345999999999999  0.4812  0.38  1.0000
  H   H55       1.0  0.9230999999999999  0.4340999999999999  0.387  1.0000
  C   C50       1.0  0.0052  0.508  0.3753  1.0000
  H   H56       1.0  0.0502  0.4833  0.3772  1.0000
  C   C51       1.0  0.9236  0.5922999999999998  0.3673  1.0000
  H   H57       1.0  0.9032  0.6368999999999998  0.3638  1.0000
  C   C52       1.0  0.05850000000000001  0.6318999999999999  0.3674  1.0000
  H   H58       1.0  0.0539  0.6618  0.3144  1.0000
  H   H59       1.0  0.1067  0.6084  0.3644  1.0000
  C   C53       1.0  0.0544  0.6752999999999999  0.45290000000000014  1.0000
  C   C54       1.0  0.0829  0.6507999999999998  0.5342000000000001  1.0000
  H   H60       1.0  0.1086  0.6086  0.5342000000000001  1.0000
  C   C55       1.0  0.0751  0.6865  0.6156000000000003  1.0000
  C   C56       1.0  0.1054  0.6565  0.7056000000000001  1.0000
  H   H61       1.0  0.0692  0.6247999999999999  0.7310000000000001  1.0000
  H   H62       1.0  0.11450000000000002  0.6938  0.7478000000000002  1.0000
  H   H63       1.0  0.1515  0.632  0.6942  1.0000
  C   C57       1.0  0.036  0.7509999999999999  0.6141  1.0000
  H   H64       1.0  0.0289  0.7755999999999997  0.668  1.0000
  C   C58       1.0  0.0083  0.7778  0.5327  1.0000
  C   C59       1.0  0.0173  0.7415999999999998  0.4531  1.0000
  C   C60       1.0  0.0424  0.8078  0.3196  1.0000
  H   H65       1.0  0.077  0.7766999999999998  0.2887000000000001  1.0000
  H   H66       1.0  0.071  0.8378  0.3599  1.0000
  H   H67       1.0  0.9645999999999999  0.8817  0.2817  1.0000
  C   C61       1.0  0.9728  0.8508  0.535  1.0000
  H   H68       1.0  0.9577999999999999  0.8640999999999999  0.4739  1.0000
  H   H69       1.0  0.9282  0.8498999999999999  0.5729  1.0000
  C   C62       1.0  0.102  0.9008  0.5670000000000002  1.0000
  H   H70       1.0  0.1287  0.8652999999999998  0.5385  1.0000
  C   C63       1.0  0.0752  0.9926999999999998  0.6398000000000003  1.0000
  H   H71       1.0  0.0798  0.03359999999999999  0.6734  1.0000
  C   C64       1.0  0.0102  0.9629  0.6161000000000002  1.0000
  H   H72       1.0  0.9624  0.9801  0.6282000000000002  1.0000
  N   N13       1.0  0.883  0.5341  0.373  1.0000
  N   N14       1.0  0.9968  0.5788999999999997  0.3671000000000001  1.0000
  N   N15       1.0  0.0266  0.9031  0.5714  1.0000
  N   N16       1.0  0.1335  0.9544  0.6076000000000001  1.0000
  O   O4        1.0  0.9885999999999999  0.7676  0.3716000000000001  1.0000
  C   C65       1.0  0.5  0.6481  0.7500000000000002  1.0000
  C   C66       1.0  0.0  0.8519  0.25  1.0000
  Cd  Cd5       1.0  0.75713  0.46962999999999994  0.62898  1.0000
  C   C67       1.0  0.9345999999999999  0.5188  0.6200000000000002  1.0000
  H   H73       1.0  0.9230999999999999  0.5658999999999998  0.6130000000000002  1.0000
  C   C68       1.0  0.0052  0.4919999999999999  0.6247  1.0000
  H   H74       1.0  0.0502  0.5167  0.6228  1.0000
  C   C69       1.0  0.9236  0.4076999999999999  0.6327  1.0000
  H   H75       1.0  0.9032  0.3631  0.6362000000000002  1.0000
  C   C70       1.0  0.05850000000000001  0.36809999999999987  0.6326000000000003  1.0000
  H   H76       1.0  0.0539  0.3382  0.6856000000000002  1.0000
  H   H77       1.0  0.1067  0.3916  0.6356  1.0000
  C   C71       1.0  0.0544  0.3246999999999999  0.5471000000000003  1.0000
  C   C72       1.0  0.0829  0.34919999999999995  0.4658  1.0000
  H   H78       1.0  0.1086  0.39139999999999997  0.4658  1.0000
  C   C73       1.0  0.0751  0.3134999999999999  0.38440000000000013  1.0000
  C   C74       1.0  0.1054  0.3435  0.2944  1.0000
  H   H79       1.0  0.0692  0.3752  0.269  1.0000
  H   H80       1.0  0.11450000000000002  0.3062  0.2522  1.0000
  H   H81       1.0  0.1515  0.368  0.3058  1.0000
  C   C75       1.0  0.036  0.249  0.3859  1.0000
  H   H82       1.0  0.0289  0.2244  0.33200000000000013  1.0000
  C   C76       1.0  0.0083  0.22219999999999998  0.4673000000000001  1.0000
  C   C77       1.0  0.0173  0.25839999999999996  0.5469000000000003  1.0000
  C   C78       1.0  0.0424  0.1922  0.6804  1.0000
  H   H83       1.0  0.077  0.2233  0.7113  1.0000
  H   H84       1.0  0.071  0.1622  0.6401000000000002  1.0000
  H   H85       1.0  0.9645999999999999  0.1183  0.7183000000000003  1.0000
  C   C79       1.0  0.9728  0.14919999999999994  0.46500000000000014  1.0000
  H   H86       1.0  0.9577999999999999  0.1359  0.5261000000000002  1.0000
  H   H87       1.0  0.9282  0.1501  0.4271000000000001  1.0000
  C   C80       1.0  0.102  0.0992  0.433  1.0000
  H   H88       1.0  0.1287  0.13469999999999996  0.46150000000000013  1.0000
  C   C81       1.0  0.0752  0.007299999999999999  0.36020000000000013  1.0000
  H   H89       1.0  0.0798  0.9663999999999999  0.3266  1.0000
  C   C82       1.0  0.0102  0.0371  0.3839000000000001  1.0000
  H   H90       1.0  0.9624  0.0199  0.3718000000000001  1.0000
  N   N17       1.0  0.883  0.4658999999999999  0.6270000000000002  1.0000
  N   N18       1.0  0.9968  0.4211  0.6329  1.0000
  N   N19       1.0  0.0266  0.0969  0.4286000000000001  1.0000
  N   N20       1.0  0.1335  0.0456  0.39240000000000014  1.0000
  O   O5        1.0  0.9885999999999999  0.2324  0.6284000000000001  1.0000
  Cd  Cd6       1.0  0.74287  0.030369999999999998  0.12898  1.0000
  C   C83       1.0  0.5654  0.9812  0.12000000000000002  1.0000
  H   H91       1.0  0.5769  0.9341  0.113  1.0000
  C   C84       1.0  0.4948  0.008  0.12470000000000003  1.0000
  H   H92       1.0  0.4498  0.9832999999999997  0.1228  1.0000
  C   C85       1.0  0.5764  0.0923  0.1327  1.0000
  H   H93       1.0  0.5968  0.1369  0.1362  1.0000
  C   C86       1.0  0.4415  0.1319  0.1326  1.0000
  H   H94       1.0  0.4461  0.1618  0.18560000000000004  1.0000
  H   H95       1.0  0.3933  0.10839999999999998  0.1356  1.0000
  C   C87       1.0  0.4456  0.17529999999999998  0.04710000000000002  1.0000
  C   C88       1.0  0.4171  0.15079999999999993  0.9658000000000002  1.0000
  H   H96       1.0  0.3914  0.1086  0.9658000000000002  1.0000
  C   C89       1.0  0.4249  0.1865  0.8844  1.0000
  C   C90       1.0  0.3946  0.15649999999999997  0.7944  1.0000
  H   H97       1.0  0.4308  0.1248  0.769  1.0000
  H   H98       1.0  0.3855  0.1938  0.7522  1.0000
  H   H99       1.0  0.3485  0.132  0.8058000000000002  1.0000
  C   C91       1.0  0.4640000000000001  0.2509999999999999  0.8859000000000001  1.0000
  H   H100      1.0  0.4711  0.2756  0.8320000000000002  1.0000
  C   C92       1.0  0.4917  0.2778  0.9673000000000003  1.0000
  C   C93       1.0  0.48269999999999996  0.24159999999999998  0.04690000000000001  1.0000
  C   C94       1.0  0.4576  0.30779999999999996  0.18040000000000006  1.0000
  H   H101      1.0  0.423  0.2766999999999999  0.2113  1.0000
  H   H102      1.0  0.429  0.3378  0.14010000000000003  1.0000
  H   H103      1.0  0.5354  0.3817  0.21830000000000005  1.0000
  C   C95       1.0  0.5272  0.3508  0.965  1.0000
  H   H104      1.0  0.5422  0.36409999999999987  0.02610000000000001  1.0000
  H   H105      1.0  0.5718  0.3499  0.9271000000000003  1.0000
  C   C96       1.0  0.398  0.4008  0.9330000000000003  1.0000
  H   H106      1.0  0.3713  0.3653  0.9615000000000002  1.0000
  C   C97       1.0  0.4248  0.4926999999999999  0.8602  1.0000
  H   H107      1.0  0.4202  0.5335999999999999  0.8266000000000001  1.0000
  C   C98       1.0  0.4898  0.4629  0.8839  1.0000
  H   H108      1.0  0.5376  0.48009999999999997  0.8718  1.0000
  N   N21       1.0  0.617  0.03409999999999999  0.127  1.0000
  N   N22       1.0  0.5032  0.07889999999999998  0.1329  1.0000
  N   N23       1.0  0.4734  0.4030999999999999  0.9286000000000002  1.0000
  N   N24       1.0  0.3665  0.4544  0.8924  1.0000
  O   O6        1.0  0.5114  0.26759999999999995  0.1284  1.0000
  Cd  Cd7       1.0  0.24287000000000003  0.46962999999999994  0.8710200000000002  1.0000
  C   C99       1.0  0.0654  0.5188  0.88  1.0000
  H   H109      1.0  0.0769  0.5658999999999998  0.8870000000000002  1.0000
  C   C100      1.0  0.9948  0.4919999999999999  0.8753000000000002  1.0000
  H   H110      1.0  0.9497999999999999  0.5167  0.8772000000000002  1.0000
  C   C101      1.0  0.0764  0.4076999999999999  0.8673000000000002  1.0000
  H   H111      1.0  0.0968  0.3631  0.8638  1.0000
  C   C102      1.0  0.9415000000000001  0.36809999999999987  0.8674  1.0000
  H   H112      1.0  0.9461  0.3382  0.8144  1.0000
  H   H113      1.0  0.8933  0.3916  0.8644000000000002  1.0000
  C   C103      1.0  0.9456  0.3246999999999999  0.9529  1.0000
  C   C104      1.0  0.9170999999999999  0.34919999999999995  0.0342  1.0000
  H   H114      1.0  0.8914  0.39139999999999997  0.0342  1.0000
  C   C105      1.0  0.9249  0.3134999999999999  0.1156  1.0000
  C   C106      1.0  0.8946  0.3435  0.2056  1.0000
  H   H115      1.0  0.9308  0.3752  0.23100000000000007  1.0000
  H   H116      1.0  0.8855  0.3062  0.24780000000000005  1.0000
  H   H117      1.0  0.8485  0.368  0.19420000000000007  1.0000
  C   C107      1.0  0.964  0.249  0.11410000000000002  1.0000
  H   H118      1.0  0.9711  0.2244  0.16800000000000007  1.0000
  C   C108      1.0  0.9917  0.22219999999999998  0.032700000000000014  1.0000
  C   C109      1.0  0.9827000000000001  0.25839999999999996  0.9531  1.0000
  C   C110      1.0  0.9576  0.1922  0.8196000000000002  1.0000
  H   H119      1.0  0.923  0.2233  0.7887000000000002  1.0000
  H   H120      1.0  0.929  0.1622  0.8599  1.0000
  H   H121      1.0  0.0354  0.1183  0.7817000000000002  1.0000
  C   C111      1.0  0.0272  0.14919999999999994  0.03500000000000002  1.0000
  H   H122      1.0  0.0422  0.1359  0.9739  1.0000
  H   H123      1.0  0.0718  0.1501  0.07290000000000003  1.0000
  C   C112      1.0  0.898  0.0992  0.067  1.0000
  H   H124      1.0  0.8713  0.13469999999999996  0.0385  1.0000
  C   C113      1.0  0.9248  0.007299999999999999  0.13980000000000006  1.0000
  H   H125      1.0  0.9202  0.9663999999999999  0.17340000000000005  1.0000
  C   C114      1.0  0.9897999999999999  0.0371  0.11610000000000002  1.0000
  H   H126      1.0  0.0376  0.0199  0.12820000000000006  1.0000
  N   N25       1.0  0.11700000000000002  0.4658999999999999  0.873  1.0000
  N   N26       1.0  0.0032  0.4211  0.8671000000000002  1.0000
  N   N27       1.0  0.9734  0.0969  0.0714  1.0000
  N   N28       1.0  0.8665  0.0456  0.10760000000000003  1.0000
  O   O7        1.0  0.0114  0.2324  0.8716  1.0000
  Cd  Cd8       1.0  0.25713  0.030369999999999998  0.3710200000000001  1.0000
  C   C115      1.0  0.4346  0.9812  0.38  1.0000
  H   H127      1.0  0.4231  0.9341  0.387  1.0000
  C   C116      1.0  0.5052  0.008  0.3753  1.0000
  H   H128      1.0  0.5502  0.9832999999999997  0.3772  1.0000
  C   C117      1.0  0.4236  0.0923  0.3673  1.0000
  H   H129      1.0  0.4032  0.1369  0.3638  1.0000
  C   C118      1.0  0.5585  0.1319  0.3674  1.0000
  H   H130      1.0  0.5539  0.1618  0.3144  1.0000
  H   H131      1.0  0.6067  0.10839999999999998  0.3644  1.0000
  C   C119      1.0  0.5544  0.17529999999999998  0.45290000000000014  1.0000
  C   C120      1.0  0.5829  0.15079999999999993  0.5342000000000001  1.0000
  H   H132      1.0  0.6086  0.1086  0.5342000000000001  1.0000
  C   C121      1.0  0.5751  0.1865  0.6156000000000003  1.0000
  C   C122      1.0  0.6054  0.15649999999999997  0.7056000000000001  1.0000
  H   H133      1.0  0.5692  0.1248  0.7310000000000001  1.0000
  H   H134      1.0  0.6145  0.1938  0.7478000000000002  1.0000
  H   H135      1.0  0.6515  0.132  0.6942  1.0000
  C   C123      1.0  0.536  0.2509999999999999  0.6141  1.0000
  H   H136      1.0  0.5289  0.2756  0.668  1.0000
  C   C124      1.0  0.5083  0.2778  0.5327  1.0000
  C   C125      1.0  0.5173  0.24159999999999998  0.4531  1.0000
  C   C126      1.0  0.5424  0.30779999999999996  0.3196  1.0000
  H   H137      1.0  0.577  0.2766999999999999  0.2887000000000001  1.0000
  H   H138      1.0  0.571  0.3378  0.3599  1.0000
  H   H139      1.0  0.4646  0.3817  0.2817  1.0000
  C   C127      1.0  0.4728  0.3508  0.535  1.0000
  H   H140      1.0  0.4578  0.36409999999999987  0.4739  1.0000
  H   H141      1.0  0.4282  0.3499  0.5729  1.0000
  C   C128      1.0  0.602  0.4008  0.5670000000000002  1.0000
  H   H142      1.0  0.6287  0.3653  0.5385  1.0000
  C   C129      1.0  0.5752  0.4926999999999999  0.6398000000000003  1.0000
  H   H143      1.0  0.5798  0.5335999999999999  0.6734  1.0000
  C   C130      1.0  0.5102  0.4629  0.6161000000000002  1.0000
  H   H144      1.0  0.4624  0.48009999999999997  0.6282000000000002  1.0000
  N   N29       1.0  0.383  0.03409999999999999  0.373  1.0000
  N   N30       1.0  0.4968  0.07889999999999998  0.3671000000000001  1.0000
  N   N31       1.0  0.5266  0.4030999999999999  0.5714  1.0000
  N   N32       1.0  0.6335  0.4544  0.6076000000000001  1.0000
  O   O8        1.0  0.4886  0.26759999999999995  0.3716000000000001  1.0000
  C   C131      1.0  0.0  0.1481  0.7500000000000002  1.0000
  C   C132      1.0  0.5  0.3519  0.25  1.0000
