data_image0
_chemical_formula_structural       Mn3S3O18C3HCHC2HCHC2HCHC2HCHC4HCHC2HCHC2HCHC2HCHC4HCHC2HCHC2HCHC2HCHCMn3S3O18C3HCHC2HCHC2HCHC2HCHC4HCHC2HCHC2HCHC2HCHC4HCHC2HCHC2HCHC2HCHCMn3S3O18C3HCHC2HCHC2HCHC2HCHC4HCHC2HCHC2HCHC2HCHC4HCHC2HCHC2HCHC2HCHCMn3S3O18C3HCHC2HCHC2HCHC2HCHC4HCHC2HCHC2HCHC2HCHC4HCHC2HCHC2HCHC2HCHC
_chemical_formula_sum              "Mn12 S12 O72 C168 H96"
_cell_length_a       16.7094
_cell_length_b       20.2857
_cell_length_c       17.1936
_cell_angle_alpha    90.0
_cell_angle_beta     99.178
_cell_angle_gamma    90.0

_symmetry_space_group_name_H-M    'P 1'
_symmetry_Int_Tables_number       1

loop_
  _symmetry_equiv_pos_as_xyz
  'x,y,z'

loop_
  _atom_site_type_symbol
  _atom_site_label
  _atom_site_symmetry_multiplicity
  _atom_site_fract_x
  _atom_site_fract_y
  _atom_site_fract_z
  _atom_site_occupancy
  Mn  Mn1       1.0  0.96912  0.83354  0.24752  1.0000
  Mn  Mn2       1.0  0.86416  0.8750299999999999  0.05289000000000001  1.0000
  Mn  Mn3       1.0  0.08766  0.85221  0.44303  1.0000
  S   S1        1.0  0.45205  0.7251  0.22902  1.0000
  S   S2        1.0  0.10692999999999998  0.51409  0.95779  1.0000
  S   S3        1.0  0.04270000000000002  0.43195  0.34433000000000014  1.0000
  O   O1        1.0  0.0149  0.7568  0.3253  1.0000
  O   O2        1.0  0.5684  0.41770000000000007  0.324  1.0000
  O   O3        1.0  0.9868  0.76861  0.1534  1.0000
  O   O4        1.0  0.40950000000000003  0.3685  0.2543  1.0000
  O   O5        1.0  0.8429  0.8071200000000001  0.24341  1.0000
  O   O6        1.0  0.46260000000000007  0.61077  0.8597  1.0000
  O   O7        1.0  0.7989  0.8129000000000001  0.1145  1.0000
  O   O8        1.0  0.9476  0.8042299999999999  0.0302  1.0000
  O   O9        1.0  0.5511  0.456  0.4392  1.0000
  O   O10       1.0  0.3414  0.3862  0.1341  1.0000
  O   O11       1.0  0.0812  0.7511  0.44570000000000004  1.0000
  O   O12       1.0  0.4929  0.6  0.9873  1.0000
  O   O13       1.0  0.4264  0.765  0.2895  1.0000
  O   O14       1.0  0.40329999999999994  0.72184  0.1532  1.0000
  O   O15       1.0  0.06189999999999997  0.50031  0.8823  1.0000
  O   O16       1.0  0.1101  0.46704000000000007  0.0198  1.0000
  O   O17       1.0  0.0503  0.40165999999999996  0.4198  1.0000
  O   O18       1.0  0.9759  0.41597999999999996  0.2848  1.0000
  C   C1        1.0  0.7888  0.8033  0.18420000000000003  1.0000
  C   C2        1.0  0.7055  0.7841  0.1969  1.0000
  C   C3        1.0  0.6855  0.7768  0.272  1.0000
  H   H1        1.0  0.7251  0.7833  0.3159  1.0000
  C   C4        1.0  0.608  0.7599  0.2822  1.0000
  H   H2        1.0  0.5946  0.7557  0.3325  1.0000
  C   C5        1.0  0.5506  0.7494  0.2164  1.0000
  C   C6        1.0  0.569  0.757  0.1413  1.0000
  H   H3        1.0  0.5295  0.75  0.09750000000000003  1.0000
  C   C7        1.0  0.6459  0.7749  0.1321  1.0000
  H   H4        1.0  0.6582  0.7811  0.0817  1.0000
  C   C8        1.0  0.46719999999999995  0.6448  0.2665  1.0000
  C   C9        1.0  0.4702  0.6347  0.347  1.0000
  H   H5        1.0  0.4591  0.669  0.3796  1.0000
  C   C10       1.0  0.4898  0.5732  0.3771  1.0000
  H   H6        1.0  0.49099999999999994  0.5653  0.4306000000000001  1.0000
  C   C11       1.0  0.5078  0.5229  0.3286  1.0000
  C   C12       1.0  0.5013  0.5329  0.2479  1.0000
  H   H7        1.0  0.5108  0.49829999999999997  0.21530000000000005  1.0000
  C   C13       1.0  0.4806  0.594  0.2163  1.0000
  H   H8        1.0  0.4758  0.601  0.1623  1.0000
  C   C14       1.0  0.5421  0.46109999999999995  0.3655  1.0000
  C   C15       1.0  0.9807  0.7637  0.0799  1.0000
  C   C16       1.0  0.0146  0.7021  0.0484  1.0000
  C   C17       1.0  0.003900000000000003  0.6907  0.9686  1.0000
  H   H9        1.0  0.977  0.7216  0.934  1.0000
  C   C18       1.0  0.0329  0.6333  0.9394  1.0000
  H   H10       1.0  0.026100000000000026  0.6253  0.8855000000000002  1.0000
  C   C19       1.0  0.07220000000000003  0.5883  0.9925000000000002  1.0000
  C   C20       1.0  0.0826  0.5999  0.0722  1.0000
  H   H11       1.0  0.1092  0.5689  0.1071  1.0000
  C   C21       1.0  0.054  0.657  0.10040000000000002  1.0000
  H   H12       1.0  0.06130000000000001  0.6651  0.1543  1.0000
  C   C22       1.0  0.20690000000000003  0.5327  0.9452000000000002  1.0000
  C   C23       1.0  0.2214  0.5609  0.8761  1.0000
  H   H13       1.0  0.1789  0.5675  0.8349  1.0000
  C   C24       1.0  0.299  0.5796  0.8681  1.0000
  H   H14       1.0  0.30929999999999996  0.5983  0.8213000000000003  1.0000
  C   C25       1.0  0.3607  0.5701  0.9299000000000001  1.0000
  C   C26       1.0  0.3456  0.5401  0.9987000000000001  1.0000
  H   H15       1.0  0.3881  0.5327  0.0398  1.0000
  C   C27       1.0  0.2687  0.5212  0.0065  1.0000
  H   H16       1.0  0.2584  0.501  0.0524  1.0000
  C   C28       1.0  0.4437  0.5949  0.9245  1.0000
  C   C29       1.0  0.0471  0.7252  0.3825  1.0000
  C   C30       1.0  0.04690000000000001  0.6522  0.3754  1.0000
  C   C31       1.0  0.017299999999999996  0.6242  0.3032  1.0000
  H   H17       1.0  0.9977999999999999  0.6511  0.2607  1.0000
  C   C32       1.0  0.016499999999999997  0.5574  0.2938  1.0000
  H   H18       1.0  0.997  0.5387  0.245  1.0000
  C   C33       1.0  0.0447  0.5182  0.3573  1.0000
  C   C34       1.0  0.07250000000000002  0.5445  0.4288000000000001  1.0000
  H   H19       1.0  0.0901  0.5172  0.4716  1.0000
  C   C35       1.0  0.07440000000000002  0.6121  0.4376000000000001  1.0000
  H   H20       1.0  0.0945  0.6305  0.4863  1.0000
  C   C36       1.0  0.1313  0.4164  0.304  1.0000
  C   C37       1.0  0.1308  0.4255  0.2244  1.0000
  H   H21       1.0  0.08390000000000002  0.4393  0.19200000000000006  1.0000
  C   C38       1.0  0.20100000000000004  0.4137  0.19340000000000004  1.0000
  H   H22       1.0  0.2011  0.4187  0.1396  1.0000
  C   C39       1.0  0.2708  0.3948  0.24200000000000002  1.0000
  C   C40       1.0  0.27  0.3852  0.3215000000000001  1.0000
  H   H23       1.0  0.3169  0.3714  0.354  1.0000
  C   C41       1.0  0.1999  0.3959  0.3529000000000001  1.0000
  H   H24       1.0  0.1993  0.3893  0.4063  1.0000
  C   C42       1.0  0.3472  0.3823  0.2076  1.0000
  Mn  Mn4       1.0  0.53088  0.33354  0.25248  1.0000
  Mn  Mn5       1.0  0.6358399999999998  0.37503  0.4471100000000001  1.0000
  Mn  Mn6       1.0  0.41234  0.35221  0.056970000000000014  1.0000
  S   S4        1.0  0.04795  0.2251  0.27098  1.0000
  S   S5        1.0  0.39307  0.01409  0.54221  1.0000
  S   S6        1.0  0.4573  0.93195  0.15567  1.0000
  O   O19       1.0  0.48510000000000003  0.2568  0.1747  1.0000
  O   O20       1.0  0.9316  0.9177  0.176  1.0000
  O   O21       1.0  0.5132  0.26861  0.3466  1.0000
  O   O22       1.0  0.09049999999999998  0.8685  0.24570000000000003  1.0000
  O   O23       1.0  0.6571  0.30712  0.25659  1.0000
  O   O24       1.0  0.037399999999999996  0.11077  0.6403  1.0000
  O   O25       1.0  0.7011  0.3129  0.3855  1.0000
  O   O26       1.0  0.5524  0.30423  0.4698000000000001  1.0000
  O   O27       1.0  0.9489  0.956  0.06080000000000001  1.0000
  O   O28       1.0  0.1586  0.8861999999999999  0.3659  1.0000
  O   O29       1.0  0.4188  0.2511  0.0543  1.0000
  O   O30       1.0  0.007100000000000035  0.09999999999999999  0.5127000000000003  1.0000
  O   O31       1.0  0.0736  0.265  0.21050000000000002  1.0000
  O   O32       1.0  0.0967  0.22184000000000004  0.3468  1.0000
  O   O33       1.0  0.4381  0.00031  0.6177  1.0000
  O   O34       1.0  0.38989999999999997  0.96704  0.48020000000000007  1.0000
  O   O35       1.0  0.4497  0.90166  0.0802  1.0000
  O   O36       1.0  0.5241  0.91598  0.2152  1.0000
  C   C43       1.0  0.7112000000000002  0.3033  0.3158000000000001  1.0000
  C   C44       1.0  0.7944999999999999  0.2841  0.3031000000000001  1.0000
  C   C45       1.0  0.8145  0.2768  0.22800000000000006  1.0000
  H   H25       1.0  0.7749  0.2833  0.1841  1.0000
  C   C46       1.0  0.892  0.2599  0.2178  1.0000
  H   H26       1.0  0.9054  0.2557  0.1675  1.0000
  C   C47       1.0  0.9494  0.2494  0.2836  1.0000
  C   C48       1.0  0.931  0.257  0.3587  1.0000
  H   H27       1.0  0.9705000000000001  0.25  0.4025  1.0000
  C   C49       1.0  0.8541  0.2749  0.3679  1.0000
  H   H28       1.0  0.8418  0.2811  0.4183  1.0000
  C   C50       1.0  0.0328  0.1448  0.2335  1.0000
  C   C51       1.0  0.0298  0.1347  0.153  1.0000
  H   H29       1.0  0.040900000000000006  0.169  0.12040000000000001  1.0000
  C   C52       1.0  0.0102  0.0732  0.1229  1.0000
  H   H30       1.0  0.009  0.0653  0.0694  1.0000
  C   C53       1.0  0.9921999999999999  0.0229  0.1714  1.0000
  C   C54       1.0  0.9986999999999999  0.0329  0.2521  1.0000
  H   H31       1.0  0.9891999999999999  0.9983  0.2847  1.0000
  C   C55       1.0  0.019400000000000018  0.094  0.2837000000000001  1.0000
  H   H32       1.0  0.02420000000000002  0.10099999999999999  0.3377000000000001  1.0000
  C   C56       1.0  0.9579000000000001  0.9611  0.1345  1.0000
  C   C57       1.0  0.5193  0.2637  0.4201  1.0000
  C   C58       1.0  0.4854  0.2021  0.4516  1.0000
  C   C59       1.0  0.49609999999999993  0.1907  0.5314000000000002  1.0000
  H   H33       1.0  0.523  0.2216  0.5660000000000002  1.0000
  C   C60       1.0  0.4671  0.1333  0.5606  1.0000
  H   H34       1.0  0.4739  0.1253  0.6145  1.0000
  C   C61       1.0  0.4278  0.0883  0.5075  1.0000
  C   C62       1.0  0.4174  0.0999  0.4278  1.0000
  H   H35       1.0  0.3908  0.0689  0.3929  1.0000
  C   C63       1.0  0.446  0.157  0.3996  1.0000
  H   H36       1.0  0.4387  0.1651  0.3457  1.0000
  C   C64       1.0  0.2931  0.0327  0.5548  1.0000
  C   C65       1.0  0.2786  0.0609  0.6239  1.0000
  H   H37       1.0  0.32109999999999994  0.0675  0.6651  1.0000
  C   C66       1.0  0.201  0.0796  0.6319  1.0000
  H   H38       1.0  0.1907  0.0983  0.6787  1.0000
  C   C67       1.0  0.1393  0.0701  0.5701  1.0000
  C   C68       1.0  0.1544  0.0401  0.5013  1.0000
  H   H39       1.0  0.11190000000000003  0.0327  0.4602000000000001  1.0000
  C   C69       1.0  0.2313  0.0212  0.4935  1.0000
  H   H40       1.0  0.24160000000000004  0.001  0.4476  1.0000
  C   C70       1.0  0.056300000000000044  0.0949  0.5755000000000002  1.0000
  C   C71       1.0  0.4529  0.22519999999999998  0.1175  1.0000
  C   C72       1.0  0.4531  0.1522  0.12460000000000002  1.0000
  C   C73       1.0  0.4827000000000001  0.12419999999999999  0.1968  1.0000
  H   H41       1.0  0.5022  0.1511  0.2393  1.0000
  C   C74       1.0  0.4835  0.0574  0.2062  1.0000
  H   H42       1.0  0.503  0.0387  0.255  1.0000
  C   C75       1.0  0.4553  0.0182  0.1427  1.0000
  C   C76       1.0  0.4275  0.0445  0.0712  1.0000
  H   H43       1.0  0.4099  0.0172  0.0284  1.0000
  C   C77       1.0  0.4256  0.1121  0.0624  1.0000
  H   H44       1.0  0.4055  0.1305  0.0137  1.0000
  C   C78       1.0  0.3687  0.9164  0.196  1.0000
  C   C79       1.0  0.36920000000000003  0.9255  0.2756000000000001  1.0000
  H   H45       1.0  0.4161  0.9392999999999999  0.308  1.0000
  C   C80       1.0  0.299  0.9137000000000001  0.3066  1.0000
  H   H46       1.0  0.2989  0.9186999999999999  0.3604  1.0000
  C   C81       1.0  0.2292  0.8948  0.258  1.0000
  C   C82       1.0  0.23  0.8852  0.1785  1.0000
  H   H47       1.0  0.1831  0.8714  0.146  1.0000
  C   C83       1.0  0.3001  0.8958999999999999  0.1471  1.0000
  H   H48       1.0  0.3007  0.8892999999999999  0.09370000000000003  1.0000
  C   C84       1.0  0.1528  0.8823  0.2924  1.0000
  Mn  Mn7       1.0  0.030879999999999998  0.16646  0.75248  1.0000
  Mn  Mn8       1.0  0.13584  0.12497  0.94711  1.0000
  Mn  Mn9       1.0  0.91234  0.14779  0.55697  1.0000
  S   S7        1.0  0.54795  0.2749  0.77098  1.0000
  S   S8        1.0  0.89307  0.48591000000000006  0.04221  1.0000
  S   S9        1.0  0.9573  0.56805  0.65567  1.0000
  O   O37       1.0  0.9850999999999999  0.24320000000000003  0.6747  1.0000
  O   O38       1.0  0.4316  0.5823  0.676  1.0000
  O   O39       1.0  0.013199999999999996  0.23139  0.8466  1.0000
  O   O40       1.0  0.5905  0.6315  0.7457000000000003  1.0000
  O   O41       1.0  0.15710000000000002  0.19288  0.7565900000000001  1.0000
  O   O42       1.0  0.5374  0.38923  0.1403  1.0000
  O   O43       1.0  0.2011  0.1871  0.8855000000000002  1.0000
  O   O44       1.0  0.05240000000000004  0.19577  0.9698000000000001  1.0000
  O   O45       1.0  0.4489  0.544  0.5608  1.0000
  O   O46       1.0  0.6586000000000001  0.6138  0.8659  1.0000
  O   O47       1.0  0.9188  0.2489  0.5543000000000001  1.0000
  O   O48       1.0  0.5071  0.39999999999999997  0.0127  1.0000
  O   O49       1.0  0.5736  0.23499999999999996  0.7105  1.0000
  O   O50       1.0  0.5967  0.27816  0.8468  1.0000
  O   O51       1.0  0.9381  0.49968999999999997  0.11770000000000003  1.0000
  O   O52       1.0  0.8899  0.53296  0.9802000000000001  1.0000
  O   O53       1.0  0.9497  0.59834  0.5802  1.0000
  O   O54       1.0  0.0241  0.58402  0.7152  1.0000
  C   C85       1.0  0.21119999999999994  0.1967  0.8158  1.0000
  C   C86       1.0  0.2945  0.21589999999999998  0.8031  1.0000
  C   C87       1.0  0.3145  0.22319999999999998  0.728  1.0000
  H   H49       1.0  0.2749  0.2167  0.6841  1.0000
  C   C88       1.0  0.392  0.2401  0.7178000000000002  1.0000
  H   H50       1.0  0.4053999999999999  0.24429999999999996  0.6675  1.0000
  C   C89       1.0  0.4494  0.2506  0.7836  1.0000
  C   C90       1.0  0.431  0.243  0.8587000000000002  1.0000
  H   H51       1.0  0.47050000000000003  0.25  0.9025000000000002  1.0000
  C   C91       1.0  0.3541  0.2251  0.8679000000000002  1.0000
  H   H52       1.0  0.3418  0.2189  0.9183  1.0000
  C   C92       1.0  0.5328  0.3552  0.7335  1.0000
  C   C93       1.0  0.5298  0.3653  0.653  1.0000
  H   H53       1.0  0.5409  0.331  0.6204  1.0000
  C   C94       1.0  0.5102  0.4268  0.6229  1.0000
  H   H54       1.0  0.509  0.4347  0.5694  1.0000
  C   C95       1.0  0.49219999999999997  0.4771  0.6714  1.0000
  C   C96       1.0  0.4986999999999999  0.4671  0.7521000000000002  1.0000
  H   H55       1.0  0.4892  0.5017  0.7847  1.0000
  C   C97       1.0  0.5194  0.406  0.7837  1.0000
  H   H56       1.0  0.5242  0.399  0.8377  1.0000
  C   C98       1.0  0.4579  0.5389  0.6345  1.0000
  C   C99       1.0  0.019300000000000025  0.2363  0.9201000000000003  1.0000
  C   C100      1.0  0.9853999999999999  0.2979  0.9516  1.0000
  C   C101      1.0  0.9961  0.3093  0.03140000000000001  1.0000
  H   H57       1.0  0.023  0.2784  0.066  1.0000
  C   C102      1.0  0.9671000000000001  0.3667  0.06060000000000001  1.0000
  H   H58       1.0  0.9739  0.3747  0.1145  1.0000
  C   C103      1.0  0.9278  0.4117  0.0075  1.0000
  C   C104      1.0  0.9174  0.4001  0.9278  1.0000
  H   H59       1.0  0.8908  0.4311  0.8929  1.0000
  C   C105      1.0  0.946  0.343  0.8996  1.0000
  H   H60       1.0  0.9387  0.3349  0.8457  1.0000
  C   C106      1.0  0.7931  0.4673  0.0548  1.0000
  C   C107      1.0  0.7786  0.43910000000000005  0.12390000000000001  1.0000
  H   H61       1.0  0.8211  0.4325  0.1651  1.0000
  C   C108      1.0  0.701  0.4204  0.1319  1.0000
  H   H62       1.0  0.6907  0.4017  0.1787  1.0000
  C   C109      1.0  0.6393  0.4299  0.0701  1.0000
  C   C110      1.0  0.6544  0.45990000000000003  0.0013  1.0000
  H   H63       1.0  0.6119  0.4673  0.9602  1.0000
  C   C111      1.0  0.7313  0.47879999999999995  0.9935000000000002  1.0000
  H   H64       1.0  0.7416000000000001  0.49899999999999994  0.9476  1.0000
  C   C112      1.0  0.5562999999999999  0.4051  0.0755  1.0000
  C   C113      1.0  0.9529  0.2748  0.6175  1.0000
  C   C114      1.0  0.9531  0.3478  0.6246000000000003  1.0000
  C   C115      1.0  0.9827  0.3758  0.6968  1.0000
  H   H65       1.0  0.002200000000000026  0.3489  0.7393000000000002  1.0000
  C   C116      1.0  0.9835  0.4426  0.7062  1.0000
  H   H66       1.0  0.0030000000000000044  0.4613  0.755  1.0000
  C   C117      1.0  0.9553  0.48180000000000006  0.6427  1.0000
  C   C118      1.0  0.9275  0.4555  0.5712  1.0000
  H   H67       1.0  0.9099  0.48279999999999995  0.5284  1.0000
  C   C119      1.0  0.9256  0.3879  0.5624000000000001  1.0000
  H   H68       1.0  0.9055  0.3695  0.5137  1.0000
  C   C120      1.0  0.8687  0.5836  0.696  1.0000
  C   C121      1.0  0.8692  0.5745  0.7756000000000001  1.0000
  H   H69       1.0  0.9161  0.5607  0.808  1.0000
  C   C122      1.0  0.799  0.5863  0.8066  1.0000
  H   H70       1.0  0.7989000000000002  0.5813  0.8604000000000002  1.0000
  C   C123      1.0  0.7292  0.6052  0.7580000000000001  1.0000
  C   C124      1.0  0.73  0.6148  0.6785  1.0000
  H   H71       1.0  0.6831  0.6286  0.646  1.0000
  C   C125      1.0  0.8001  0.6041  0.6471  1.0000
  H   H72       1.0  0.8007  0.6107  0.5937  1.0000
  C   C126      1.0  0.6528  0.6177  0.7924  1.0000
  Mn  Mn10      1.0  0.4691199999999999  0.66646  0.74752  1.0000
  Mn  Mn11      1.0  0.36416  0.62497  0.5528900000000001  1.0000
  Mn  Mn12      1.0  0.58766  0.64779  0.9430300000000001  1.0000
  S   S10       1.0  0.95205  0.7749  0.7290200000000002  1.0000
  S   S11       1.0  0.6069300000000001  0.9859099999999998  0.4577900000000001  1.0000
  S   S12       1.0  0.5427  0.06805  0.84433  1.0000
  O   O55       1.0  0.5148999999999999  0.7432  0.8253  1.0000
  O   O56       1.0  0.0684  0.0823  0.824  1.0000
  O   O57       1.0  0.48680000000000007  0.73139  0.6534  1.0000
  O   O58       1.0  0.9094999999999999  0.1315  0.7543  1.0000
  O   O59       1.0  0.3429  0.69288  0.74341  1.0000
  O   O60       1.0  0.9626  0.88923  0.3597  1.0000
  O   O61       1.0  0.2989  0.6871  0.6145  1.0000
  O   O62       1.0  0.4476  0.69577  0.5302  1.0000
  O   O63       1.0  0.0511  0.044  0.9392  1.0000
  O   O64       1.0  0.8413999999999999  0.1138  0.6341000000000002  1.0000
  O   O65       1.0  0.5812  0.7489  0.9457  1.0000
  O   O66       1.0  0.9929  0.9  0.4873  1.0000
  O   O67       1.0  0.9264  0.735  0.7895000000000002  1.0000
  O   O68       1.0  0.9033  0.77816  0.6532  1.0000
  O   O69       1.0  0.5619  0.9996899999999999  0.3823  1.0000
  O   O70       1.0  0.6101  0.03296  0.5198  1.0000
  O   O71       1.0  0.5503  0.09834  0.9198000000000002  1.0000
  O   O72       1.0  0.47590000000000005  0.08402  0.7848  1.0000
  C   C127      1.0  0.2888  0.6967  0.6842  1.0000
  C   C128      1.0  0.20550000000000002  0.7159  0.6969000000000001  1.0000
  C   C129      1.0  0.1855  0.7232  0.772  1.0000
  H   H73       1.0  0.2251  0.7167  0.8159  1.0000
  C   C130      1.0  0.10799999999999997  0.7401  0.7822  1.0000
  H   H74       1.0  0.09460000000000006  0.7443  0.8325000000000002  1.0000
  C   C131      1.0  0.05060000000000003  0.7506  0.7164000000000003  1.0000
  C   C132      1.0  0.069  0.743  0.6413  1.0000
  H   H75       1.0  0.02949999999999999  0.75  0.5975  1.0000
  C   C133      1.0  0.1459  0.7251  0.6321  1.0000
  H   H76       1.0  0.1582  0.7189  0.5817  1.0000
  C   C134      1.0  0.9671999999999998  0.8551999999999998  0.7665  1.0000
  C   C135      1.0  0.9702000000000001  0.8653  0.8470000000000002  1.0000
  H   H77       1.0  0.9590999999999998  0.831  0.8796000000000003  1.0000
  C   C136      1.0  0.9898  0.9268  0.8771000000000002  1.0000
  H   H78       1.0  0.9910000000000001  0.9347  0.9306  1.0000
  C   C137      1.0  0.007800000000000033  0.9771  0.8286000000000001  1.0000
  C   C138      1.0  0.001300000000000001  0.9671  0.7479  1.0000
  H   H79       1.0  0.010800000000000023  0.0016999999999999997  0.7153000000000002  1.0000
  C   C139      1.0  0.9806  0.906  0.7163  1.0000
  H   H80       1.0  0.9757999999999999  0.8989999999999999  0.6623000000000001  1.0000
  C   C140      1.0  0.0421  0.0389  0.8655  1.0000
  C   C141      1.0  0.48069999999999996  0.7363  0.5799  1.0000
  C   C142      1.0  0.5146  0.7979  0.5484  1.0000
  C   C143      1.0  0.5039  0.8092999999999999  0.4686  1.0000
  H   H81       1.0  0.477  0.7784  0.434  1.0000
  C   C144      1.0  0.5329  0.8666999999999999  0.4394000000000001  1.0000
  H   H82       1.0  0.5261  0.8747  0.3855  1.0000
  C   C145      1.0  0.5722  0.9117  0.49250000000000005  1.0000
  C   C146      1.0  0.5826  0.9001000000000001  0.5722  1.0000
  H   H83       1.0  0.6092  0.9311  0.6071  1.0000
  C   C147      1.0  0.554  0.8429999999999999  0.6004  1.0000
  H   H84       1.0  0.5613  0.8349000000000001  0.6543  1.0000
  C   C148      1.0  0.7069  0.9672999999999999  0.4452  1.0000
  C   C149      1.0  0.7214  0.9391000000000002  0.3761  1.0000
  H   H85       1.0  0.6789000000000001  0.9325000000000001  0.3349000000000001  1.0000
  C   C150      1.0  0.799  0.9203999999999999  0.3681000000000001  1.0000
  H   H86       1.0  0.8093  0.9017  0.3213  1.0000
  C   C151      1.0  0.8607  0.9299  0.4299000000000001  1.0000
  C   C152      1.0  0.8456  0.9599  0.49870000000000003  1.0000
  H   H87       1.0  0.8881  0.9672999999999999  0.5398000000000001  1.0000
  C   C153      1.0  0.7687  0.9788  0.5065  1.0000
  H   H88       1.0  0.7584  0.999  0.5524  1.0000
  C   C154      1.0  0.9437  0.9050999999999999  0.4245  1.0000
  C   C155      1.0  0.5471  0.7748  0.8825  1.0000
  C   C156      1.0  0.5469  0.8477999999999999  0.8754  1.0000
  C   C157      1.0  0.5173  0.8757999999999999  0.8032000000000001  1.0000
  H   H89       1.0  0.49779999999999996  0.8489000000000001  0.7607  1.0000
  C   C158      1.0  0.5165  0.9426  0.7938  1.0000
  H   H90       1.0  0.497  0.9612999999999999  0.745  1.0000
  C   C159      1.0  0.5447  0.9818  0.8573000000000002  1.0000
  C   C160      1.0  0.5725  0.9555  0.9288  1.0000
  H   H91       1.0  0.5901  0.9828  0.9716  1.0000
  C   C161      1.0  0.5744  0.8879000000000001  0.9376  1.0000
  H   H92       1.0  0.5945  0.8695000000000002  0.9863  1.0000
  C   C162      1.0  0.6313  0.0836  0.8040000000000003  1.0000
  C   C163      1.0  0.6308  0.0745  0.7244  1.0000
  H   H93       1.0  0.5839  0.06069999999999999  0.692  1.0000
  C   C164      1.0  0.701  0.0863  0.6934  1.0000
  H   H94       1.0  0.7011  0.0813  0.6396  1.0000
  C   C165      1.0  0.7708  0.10519999999999999  0.742  1.0000
  C   C166      1.0  0.77  0.1148  0.8215  1.0000
  H   H95       1.0  0.8169  0.1286  0.8540000000000001  1.0000
  C   C167      1.0  0.6999  0.1041  0.8529  1.0000
  H   H96       1.0  0.6993  0.1107  0.9063  1.0000
  C   C168      1.0  0.8471999999999998  0.1177  0.7076  1.0000
