data_image0
_chemical_formula_structural       S2Mg2O7C4OC5HCHCHCHS2Mg2O7C4OC5HCHCHCHS2Mg2O7C4OC5HCHCHCHS2Mg2O7C4OC5HCHCHCH
_chemical_formula_sum              "S8 Mg8 O32 C48 H16"
_cell_length_a       10.0483
_cell_length_b       13.4969
_cell_length_c       16.7346
_cell_angle_alpha    90.0
_cell_angle_beta     93.683
_cell_angle_gamma    90.0

_space_group_name_H-M_alt    "P 1"
_space_group_IT_number       1

loop_
  _space_group_symop_operation_xyz
  'x, y, z'

loop_
  _atom_site_type_symbol
  _atom_site_label
  _atom_site_symmetry_multiplicity
  _atom_site_fract_x
  _atom_site_fract_y
  _atom_site_fract_z
  _atom_site_occupancy
  S   S1        1.0  0.29853999999999997  0.55461  0.25008  1.0000
  S   S2        1.0  0.77207  0.25203  0.2948  1.0000
  Mg  Mg1       1.0  0.40775  0.3437799999999999  0.0257  1.0000
  Mg  Mg2       1.0  0.5293  0.10289  0.05125  1.0000
  O   O1        1.0  0.3864000000000001  0.46066  0.10148  1.0000
  O   O2        1.0  0.9206200000000001  0.29501  0.45628  1.0000
  O   O3        1.0  0.6226000000000002  0.15887  0.15494999999999995  1.0000
  O   O4        1.0  0.93307  0.45450999999999997  0.43882  1.0000
  O   O5        1.0  0.14369  0.60059  0.39329  1.0000
  O   O6        1.0  0.199  0.76129  0.3986099999999999  1.0000
  O   O7        1.0  0.4845  0.59248  0.05543  1.0000
  C   C1        1.0  0.1992  0.6774  0.36814  1.0000
  C   C2        1.0  0.27190000000000003  0.6676  0.29343  1.0000
  C   C3        1.0  0.3709  0.60942  0.17139  1.0000
  C   C4        1.0  0.4182  0.54935  0.10365  1.0000
  O   O8        1.0  0.577  0.2968  0.08852999999999997  1.0000
  C   C5        1.0  0.623  0.2511  0.14897  1.0000
  C   C6        1.0  0.6842  0.3097  0.21697  1.0000
  C   C7        1.0  0.8114000000000001  0.36394  0.33909  1.0000
  C   C8        1.0  0.8914  0.37013  0.4152  1.0000
  C   C9        1.0  0.31610000000000005  0.7427  0.24854999999999997  1.0000
  H   H1        1.0  0.3102  0.8091999999999999  0.2626  1.0000
  C   C10       1.0  0.372  0.7093  0.17833  1.0000
  H   H2        1.0  0.4061  0.7515  0.1407  1.0000
  C   C11       1.0  0.6833  0.4093  0.22532999999999995  1.0000
  H   H3        1.0  0.6389  0.452  0.189  1.0000
  C   C12       1.0  0.7568000000000001  0.4413  0.29501  1.0000
  H   H4        1.0  0.7672  0.5075  0.3096  1.0000
  S   S3        1.0  0.20146  0.05461  0.24992  1.0000
  S   S4        1.0  0.72793  0.7520299999999999  0.2052  1.0000
  Mg  Mg3       1.0  0.09225  0.84378  0.4742999999999999  1.0000
  Mg  Mg4       1.0  0.9707  0.60289  0.44875  1.0000
  O   O9        1.0  0.1136  0.96066  0.3985199999999999  1.0000
  O   O10       1.0  0.5793800000000001  0.79501  0.04372  1.0000
  O   O11       1.0  0.8774000000000001  0.65887  0.34505  1.0000
  O   O12       1.0  0.56693  0.95451  0.06117999999999999  1.0000
  O   O13       1.0  0.35631  0.10059  0.10671  1.0000
  O   O14       1.0  0.301  0.26129  0.10139  1.0000
  O   O15       1.0  0.0155  0.09248  0.44457  1.0000
  C   C13       1.0  0.3008  0.17739999999999997  0.13186  1.0000
  C   C14       1.0  0.22810000000000002  0.1676  0.20657  1.0000
  C   C15       1.0  0.1291  0.10942  0.32861  1.0000
  C   C16       1.0  0.0818  0.04935  0.39635  1.0000
  O   O16       1.0  0.9230000000000002  0.7968  0.4114699999999999  1.0000
  C   C17       1.0  0.8770000000000001  0.7511  0.3510299999999999  1.0000
  C   C18       1.0  0.8158  0.8097  0.28303  1.0000
  C   C19       1.0  0.6886000000000001  0.86394  0.16091  1.0000
  C   C20       1.0  0.6086  0.87013  0.0848  1.0000
  C   C21       1.0  0.1839  0.24269999999999997  0.25145  1.0000
  H   H5        1.0  0.18979999999999997  0.3092  0.2374  1.0000
  C   C22       1.0  0.128  0.2093  0.32167  1.0000
  H   H6        1.0  0.09389999999999998  0.2515  0.3593  1.0000
  C   C23       1.0  0.8167  0.9093  0.2746699999999999  1.0000
  H   H7        1.0  0.8611000000000002  0.952  0.311  1.0000
  C   C24       1.0  0.7432  0.9413  0.20499  1.0000
  H   H8        1.0  0.7328000000000001  0.007499999999999999  0.19039999999999996  1.0000
  S   S5        1.0  0.70146  0.44539  0.7499199999999998  1.0000
  S   S6        1.0  0.22792999999999997  0.74797  0.7051999999999998  1.0000
  Mg  Mg5       1.0  0.5922499999999999  0.65622  0.9742999999999999  1.0000
  Mg  Mg6       1.0  0.47070000000000006  0.8971099999999997  0.94875  1.0000
  O   O17       1.0  0.6136  0.53934  0.8985199999999998  1.0000
  O   O18       1.0  0.07938  0.7049899999999999  0.54372  1.0000
  O   O19       1.0  0.3774  0.84113  0.84505  1.0000
  O   O20       1.0  0.06693  0.54549  0.56118  1.0000
  O   O21       1.0  0.8563100000000001  0.39941  0.60671  1.0000
  O   O22       1.0  0.8010000000000002  0.23871  0.6013899999999998  1.0000
  O   O23       1.0  0.5155  0.40752  0.9445699999999998  1.0000
  C   C25       1.0  0.8008000000000001  0.3226  0.63186  1.0000
  C   C26       1.0  0.7281000000000001  0.3324  0.70657  1.0000
  C   C27       1.0  0.6291  0.39058  0.82861  1.0000
  C   C28       1.0  0.5818  0.45065  0.89635  1.0000
  O   O24       1.0  0.423  0.7032  0.91147  1.0000
  C   C29       1.0  0.37699999999999995  0.7489  0.8510299999999997  1.0000
  C   C30       1.0  0.3158  0.6903  0.78303  1.0000
  C   C31       1.0  0.18860000000000002  0.63606  0.66091  1.0000
  C   C32       1.0  0.1086  0.62987  0.5848  1.0000
  C   C33       1.0  0.6839000000000001  0.2573  0.7514499999999997  1.0000
  H   H9        1.0  0.6898000000000001  0.1908  0.7374  1.0000
  C   C34       1.0  0.628  0.2907  0.82167  1.0000
  H   H10       1.0  0.5939000000000001  0.24849999999999994  0.8593  1.0000
  C   C35       1.0  0.3167  0.5907  0.77467  1.0000
  H   H11       1.0  0.36110000000000003  0.548  0.811  1.0000
  C   C36       1.0  0.24319999999999994  0.5587  0.7049899999999999  1.0000
  H   H12       1.0  0.2328  0.4924999999999999  0.6904  1.0000
  S   S7        1.0  0.7985400000000001  0.9453899999999997  0.75008  1.0000
  S   S8        1.0  0.27207  0.24797  0.7948  1.0000
  Mg  Mg7       1.0  0.9077500000000002  0.15622  0.5256999999999997  1.0000
  Mg  Mg8       1.0  0.029300000000000003  0.39711  0.55125  1.0000
  O   O25       1.0  0.8864  0.03934  0.60148  1.0000
  O   O26       1.0  0.42062  0.20499  0.95628  1.0000
  O   O27       1.0  0.1226  0.34112999999999993  0.65495  1.0000
  O   O28       1.0  0.43307000000000007  0.045489999999999996  0.93882  1.0000
  O   O29       1.0  0.64369  0.89941  0.8932899999999998  1.0000
  O   O30       1.0  0.699  0.73871  0.89861  1.0000
  O   O31       1.0  0.9845  0.90752  0.55543  1.0000
  C   C37       1.0  0.6992000000000002  0.8225999999999999  0.86814  1.0000
  C   C38       1.0  0.7719  0.8324  0.79343  1.0000
  C   C39       1.0  0.8709  0.89058  0.67139  1.0000
  C   C40       1.0  0.9182000000000001  0.95065  0.6036499999999998  1.0000
  O   O32       1.0  0.077  0.2032  0.5885299999999998  1.0000
  C   C41       1.0  0.123  0.2489  0.64897  1.0000
  C   C42       1.0  0.1842  0.1903  0.7169699999999998  1.0000
  C   C43       1.0  0.31140000000000007  0.13606  0.83909  1.0000
  C   C44       1.0  0.39139999999999997  0.12987  0.9151999999999998  1.0000
  C   C45       1.0  0.8161000000000002  0.7573  0.74855  1.0000
  H   H13       1.0  0.8102000000000001  0.6908  0.7626  1.0000
  C   C46       1.0  0.8720000000000001  0.7907  0.67833  1.0000
  H   H14       1.0  0.9061000000000001  0.7485  0.6406999999999999  1.0000
  C   C47       1.0  0.1833  0.0907  0.7253299999999998  1.0000
  H   H15       1.0  0.1389  0.048  0.689  1.0000
  C   C48       1.0  0.2568  0.0587  0.79501  1.0000
  H   H16       1.0  0.26720000000000005  0.9925  0.8095999999999998  1.0000
