data_image0
_chemical_formula_structural       DyC10HCHCHCHCHCHCHCHCHCHCHCHC3O6DyC10HCHCHCHCHCHCHCHCHCHCHCHC3O6
_chemical_formula_sum              "Dy2 C48 H24 O12"
_cell_length_a       10.3803
_cell_length_b       11.3508
_cell_length_c       12.989400000000002
_cell_angle_alpha    72.43500000000002
_cell_angle_beta     89.867
_cell_angle_gamma    87.372

_symmetry_space_group_name_H-M    'P 1'
_symmetry_Int_Tables_number       1

loop_
  _symmetry_equiv_pos_as_xyz
  'x,y,z'

loop_
  _atom_site_type_symbol
  _atom_site_label
  _atom_site_symmetry_multiplicity
  _atom_site_fract_x
  _atom_site_fract_y
  _atom_site_fract_z
  _atom_site_occupancy
  Dy  Dy1       1.0  0.4789999999999999  0.04556999999999999  0.33970000000000006  1.0000
  C   C1        1.0  0.49470000000000003  0.2659  0.1705  1.0000
  C   C2        1.0  0.5093  0.7547  0.5059  1.0000
  C   C3        1.0  0.2665  0.009100000000000002  0.5646  1.0000
  C   C4        1.0  0.4981999999999999  0.3853  0.0857  1.0000
  C   C5        1.0  0.5054  0.6216999999999999  0.5055  1.0000
  C   C6        1.0  0.1295  0.004600000000000011  0.5301  1.0000
  C   C7        1.0  0.4481  0.49490000000000006  0.1021  1.0000
  C   C8        1.0  0.3894  0.5607999999999999  0.5277  1.0000
  C   C9        1.0  0.0767  0.0977  0.4408  1.0000
  C   C10       1.0  0.3984  0.4961  0.2058  1.0000
  H   H1        1.0  0.4  0.4227  0.2625  1.0000
  C   C11       1.0  0.2743  0.6203  0.5525  1.0000
  H   H2        1.0  0.2762  0.7008000000000002  0.5559  1.0000
  C   C12       1.0  0.1497  0.19890000000000002  0.38000000000000006  1.0000
  H   H3        1.0  0.23460000000000003  0.20400000000000004  0.40029999999999993  1.0000
  C   C13       1.0  0.3498  0.6011  0.22220000000000004  1.0000
  H   H4        1.0  0.3189  0.5997  0.2898  1.0000
  C   C14       1.0  0.1619  0.5607000000000002  0.5711  1.0000
  H   H5        1.0  0.0875  0.601  0.5862  1.0000
  C   C15       1.0  0.0974  0.2876  0.2933  1.0000
  H   H6        1.0  0.1468  0.3522  0.2544  1.0000
  C   C16       1.0  0.3455  0.7148  0.1357  1.0000
  H   H7        1.0  0.31030000000000013  0.7864999999999999  0.1472  1.0000
  C   C17       1.0  0.1576  0.4371  0.5676  1.0000
  H   H8        1.0  0.0803  0.397  0.5809  1.0000
  C   C18       1.0  0.9673  0.2817  0.2619  1.0000
  H   H9        1.0  0.9324  0.34259999999999996  0.2023  1.0000
  C   C19       1.0  0.3922999999999999  0.7191000000000001  0.0372  1.0000
  H   H10       1.0  0.3895  0.794  0.9823  1.0000
  C   C20       1.0  0.2649  0.3765  0.5451  1.0000
  H   H11       1.0  0.2606  0.295  0.5446  1.0000
  C   C21       1.0  0.8932999999999999  0.1886  0.3176  1.0000
  H   H12       1.0  0.8082  0.18700000000000003  0.296  1.0000
  C   C22       1.0  0.4461  0.6103  0.0161  1.0000
  C   C23       1.0  0.3842  0.4366  0.5221  1.0000
  C   C24       1.0  0.9448000000000001  0.09240000000000002  0.4094999999999999  1.0000
  O   O1        1.0  0.38672  0.21701000000000004  0.19472  1.0000
  O   O2        1.0  0.49139  0.8336499999999999  0.41492  1.0000
  O   O3        1.0  0.35951  0.99366  0.50523  1.0000
  O   O4        1.0  0.59665  0.21370000000000003  0.21748  1.0000
  O   O5        1.0  0.53038  0.77575  0.59375  1.0000
  O   O6        1.0  0.28755  0.01943  0.65607  1.0000
  Dy  Dy2       1.0  0.521  0.95443  0.6603  1.0000
  C   C25       1.0  0.5053  0.7341  0.8295  1.0000
  C   C26       1.0  0.4907  0.24530000000000002  0.4941  1.0000
  C   C27       1.0  0.7335000000000002  0.9909  0.4354  1.0000
  C   C28       1.0  0.5018  0.6147  0.9143  1.0000
  C   C29       1.0  0.49459999999999993  0.3783000000000001  0.4945  1.0000
  C   C30       1.0  0.8705  0.9954000000000001  0.4699  1.0000
  C   C31       1.0  0.5519  0.5051  0.8978999999999999  1.0000
  C   C32       1.0  0.6106  0.4392  0.4723  1.0000
  C   C33       1.0  0.9233  0.9023  0.5592  1.0000
  C   C34       1.0  0.6016  0.5039000000000001  0.7942  1.0000
  H   H13       1.0  0.6  0.5772999999999999  0.7375000000000002  1.0000
  C   C35       1.0  0.7257  0.37969999999999987  0.4475  1.0000
  H   H14       1.0  0.7238  0.2992000000000001  0.4441  1.0000
  C   C36       1.0  0.8503000000000001  0.8011000000000001  0.62  1.0000
  H   H15       1.0  0.7654  0.7960000000000002  0.5997  1.0000
  C   C37       1.0  0.6502  0.39890000000000003  0.7777999999999999  1.0000
  H   H16       1.0  0.6811  0.40029999999999993  0.7102  1.0000
  C   C38       1.0  0.8381  0.4393000000000001  0.4289  1.0000
  H   H17       1.0  0.9125  0.399  0.4138  1.0000
  C   C39       1.0  0.9026  0.7124  0.7067  1.0000
  H   H18       1.0  0.8532000000000001  0.6478  0.7456  1.0000
  C   C40       1.0  0.6545  0.28519999999999995  0.8643  1.0000
  H   H19       1.0  0.6897  0.21350000000000005  0.8528  1.0000
  C   C41       1.0  0.8424  0.5629  0.4324  1.0000
  H   H20       1.0  0.9196999999999999  0.603  0.4191  1.0000
  C   C42       1.0  0.0327  0.7183000000000002  0.7380999999999999  1.0000
  H   H21       1.0  0.0676  0.6574  0.7977  1.0000
  C   C43       1.0  0.6077  0.2809000000000001  0.9628  1.0000
  H   H22       1.0  0.6105  0.206  0.0177  1.0000
  C   C44       1.0  0.7351  0.6235  0.4549  1.0000
  H   H23       1.0  0.7393999999999998  0.705  0.4554  1.0000
  C   C45       1.0  0.10670000000000002  0.8114  0.6824000000000001  1.0000
  H   H24       1.0  0.1918  0.813  0.704  1.0000
  C   C46       1.0  0.5539  0.3897000000000001  0.9839  1.0000
  C   C47       1.0  0.6158  0.5634000000000001  0.4779  1.0000
  C   C48       1.0  0.0552  0.9076000000000001  0.5905  1.0000
  O   O7        1.0  0.61328  0.78299  0.80528  1.0000
  O   O8        1.0  0.50861  0.16634999999999997  0.58508  1.0000
  O   O9        1.0  0.64049  0.006340000000000007  0.49476999999999993  1.0000
  O   O10       1.0  0.40335  0.7863  0.78252  1.0000
  O   O11       1.0  0.46962000000000004  0.22425  0.40625  1.0000
  O   O12       1.0  0.71245  0.98057  0.34392999999999996  1.0000
