data_image0
_chemical_formula_structural       OC3HO2C3HO2C3HO2C3HO2C3HO2C3HO2C3HO2C3HO2C3HO2C3HO2C3HO2C3HO2C3HO2C3HO2C3HO2C3HO2C3HO2C3HO2C3HO2C3HO2C3HO2C3HO2C3HO2C3HO2C3HO2C3HO2C3HO2C3HO2C3HO2C3HO2C3HO2C3HO2C3HO2C3HO2C3HO2C3HO2C3HO2C3HO2C3HO2C3HO2C3HO2C3HO2C3HO2C3HO2C3HO2C3HO2C3HO2C3HOEuNCHEuNCHEuNCHEuNCHEuNCHEuNCHEuNCHEuNCHEuNCHEuNCHEuNCHEuNCHEuNCHEuNCHEuNCHEuNCHEuNCHEuNCHEuNCHEuNCHEuNCHEuNCHEuNCHEuNCH
_chemical_formula_sum              "O96 C168 H72 Eu24 N24"
_cell_length_a       19.8027
_cell_length_b       19.8027
_cell_length_c       19.8027
_cell_angle_alpha    90.0
_cell_angle_beta     90.0
_cell_angle_gamma    90.0

_space_group_name_H-M_alt    "P 1"
_space_group_IT_number       1

loop_
  _space_group_symop_operation_xyz
  'x, y, z'

loop_
  _atom_site_type_symbol
  _atom_site_label
  _atom_site_symmetry_multiplicity
  _atom_site_fract_x
  _atom_site_fract_y
  _atom_site_fract_z
  _atom_site_occupancy
  O   O1        1.0  0.70636  0.4545  0.34776  1.0000
  C   C1        1.0  0.7693000000000001  0.44560000000000005  0.356  1.0000
  C   C2        1.0  0.8140000000000001  0.4738  0.302  1.0000
  C   C3        1.0  0.8840000000000001  0.4724  0.3036  1.0000
  H   H1        1.0  0.907  0.4533  0.3399  1.0000
  O   O2        1.0  0.7951000000000001  0.4151000000000001  0.40470000000000006  1.0000
  O   O3        1.0  0.20636  0.9545  0.84776  1.0000
  C   C4        1.0  0.26930000000000004  0.9456000000000002  0.856  1.0000
  C   C5        1.0  0.31400000000000006  0.9738000000000001  0.8020000000000002  1.0000
  C   C6        1.0  0.384  0.9724  0.8036  1.0000
  H   H2        1.0  0.40700000000000003  0.9533000000000001  0.8399000000000001  1.0000
  O   O4        1.0  0.2951  0.9151000000000001  0.9047  1.0000
  O   O5        1.0  0.7936400000000001  0.5455000000000001  0.84776  1.0000
  C   C7        1.0  0.7307  0.5544  0.856  1.0000
  C   C8        1.0  0.686  0.5262  0.8020000000000002  1.0000
  C   C9        1.0  0.616  0.5276  0.8036  1.0000
  H   H3        1.0  0.593  0.5467  0.8399000000000001  1.0000
  O   O6        1.0  0.7049  0.5849  0.9047  1.0000
  O   O7        1.0  0.29364000000000007  0.0455  0.34776  1.0000
  C   C10       1.0  0.23070000000000002  0.0544  0.356  1.0000
  C   C11       1.0  0.18600000000000003  0.0262  0.302  1.0000
  C   C12       1.0  0.116  0.027600000000000006  0.3036  1.0000
  H   H4        1.0  0.09300000000000001  0.0467  0.3399  1.0000
  O   O8        1.0  0.2049  0.0849  0.40470000000000006  1.0000
  O   O9        1.0  0.29364000000000007  0.9545  0.15224  1.0000
  C   C13       1.0  0.23070000000000002  0.9456000000000002  0.144  1.0000
  C   C14       1.0  0.18600000000000003  0.9738000000000001  0.198  1.0000
  C   C15       1.0  0.116  0.9724  0.1964  1.0000
  H   H5        1.0  0.09300000000000001  0.9533000000000001  0.1601  1.0000
  O   O10       1.0  0.2049  0.9151000000000001  0.09530000000000001  1.0000
  O   O11       1.0  0.7936400000000001  0.4545  0.65224  1.0000
  C   C16       1.0  0.7307  0.44560000000000005  0.644  1.0000
  C   C17       1.0  0.686  0.4738  0.698  1.0000
  C   C18       1.0  0.616  0.4724  0.6964  1.0000
  H   H6        1.0  0.593  0.4533  0.6601  1.0000
  O   O12       1.0  0.7049  0.4151000000000001  0.5953  1.0000
  O   O13       1.0  0.20636  0.0455  0.65224  1.0000
  C   C19       1.0  0.26930000000000004  0.0544  0.644  1.0000
  C   C20       1.0  0.31400000000000006  0.0262  0.698  1.0000
  C   C21       1.0  0.384  0.027600000000000006  0.6964  1.0000
  H   H7        1.0  0.40700000000000003  0.0467  0.6601  1.0000
  O   O14       1.0  0.2951  0.0849  0.5953  1.0000
  O   O15       1.0  0.70636  0.5455000000000001  0.15224  1.0000
  C   C22       1.0  0.7693000000000001  0.5544  0.144  1.0000
  C   C23       1.0  0.8140000000000001  0.5262  0.198  1.0000
  C   C24       1.0  0.8840000000000001  0.5276  0.1964  1.0000
  H   H8        1.0  0.907  0.5467  0.1601  1.0000
  O   O16       1.0  0.7951000000000001  0.5849  0.09530000000000001  1.0000
  O   O17       1.0  0.34776  0.70636  0.4545  1.0000
  C   C25       1.0  0.356  0.7693000000000001  0.44560000000000005  1.0000
  C   C26       1.0  0.302  0.8140000000000001  0.4738  1.0000
  C   C27       1.0  0.3036  0.8840000000000001  0.4724  1.0000
  H   H9        1.0  0.3399  0.907  0.4533  1.0000
  O   O18       1.0  0.40470000000000006  0.7951000000000001  0.4151000000000001  1.0000
  O   O19       1.0  0.84776  0.20636  0.9545  1.0000
  C   C28       1.0  0.856  0.26930000000000004  0.9456000000000002  1.0000
  C   C29       1.0  0.8020000000000002  0.31400000000000006  0.9738000000000001  1.0000
  C   C30       1.0  0.8036  0.384  0.9724  1.0000
  H   H10       1.0  0.8399000000000001  0.40700000000000003  0.9533000000000001  1.0000
  O   O20       1.0  0.9047  0.2951  0.9151000000000001  1.0000
  O   O21       1.0  0.84776  0.7936400000000001  0.5455000000000001  1.0000
  C   C31       1.0  0.856  0.7307  0.5544  1.0000
  C   C32       1.0  0.8020000000000002  0.686  0.5262  1.0000
  C   C33       1.0  0.8036  0.616  0.5276  1.0000
  H   H11       1.0  0.8399000000000001  0.593  0.5467  1.0000
  O   O22       1.0  0.9047  0.7049  0.5849  1.0000
  O   O23       1.0  0.34776  0.29364000000000007  0.0455  1.0000
  C   C34       1.0  0.356  0.23070000000000002  0.0544  1.0000
  C   C35       1.0  0.302  0.18600000000000003  0.0262  1.0000
  C   C36       1.0  0.3036  0.116  0.027600000000000006  1.0000
  H   H12       1.0  0.3399  0.09300000000000001  0.0467  1.0000
  O   O24       1.0  0.40470000000000006  0.2049  0.0849  1.0000
  O   O25       1.0  0.15224  0.29364000000000007  0.9545  1.0000
  C   C37       1.0  0.144  0.23070000000000002  0.9456000000000002  1.0000
  C   C38       1.0  0.198  0.18600000000000003  0.9738000000000001  1.0000
  C   C39       1.0  0.1964  0.116  0.9724  1.0000
  H   H13       1.0  0.1601  0.09300000000000001  0.9533000000000001  1.0000
  O   O26       1.0  0.09530000000000001  0.2049  0.9151000000000001  1.0000
  O   O27       1.0  0.65224  0.7936400000000001  0.4545  1.0000
  C   C40       1.0  0.644  0.7307  0.44560000000000005  1.0000
  C   C41       1.0  0.698  0.686  0.4738  1.0000
  C   C42       1.0  0.6964  0.616  0.4724  1.0000
  H   H14       1.0  0.6601  0.593  0.4533  1.0000
  O   O28       1.0  0.5953  0.7049  0.4151000000000001  1.0000
  O   O29       1.0  0.65224  0.20636  0.0455  1.0000
  C   C43       1.0  0.644  0.26930000000000004  0.0544  1.0000
  C   C44       1.0  0.698  0.31400000000000006  0.0262  1.0000
  C   C45       1.0  0.6964  0.384  0.027600000000000006  1.0000
  H   H15       1.0  0.6601  0.40700000000000003  0.0467  1.0000
  O   O30       1.0  0.5953  0.2951  0.0849  1.0000
  O   O31       1.0  0.15224  0.70636  0.5455000000000001  1.0000
  C   C46       1.0  0.144  0.7693000000000001  0.5544  1.0000
  C   C47       1.0  0.198  0.8140000000000001  0.5262  1.0000
  C   C48       1.0  0.1964  0.8840000000000001  0.5276  1.0000
  H   H16       1.0  0.1601  0.907  0.5467  1.0000
  O   O32       1.0  0.09530000000000001  0.7951000000000001  0.5849  1.0000
  O   O33       1.0  0.4545  0.34776  0.70636  1.0000
  C   C49       1.0  0.44560000000000005  0.356  0.7693000000000001  1.0000
  C   C50       1.0  0.4738  0.302  0.8140000000000001  1.0000
  C   C51       1.0  0.4724  0.3036  0.8840000000000001  1.0000
  H   H17       1.0  0.4533  0.3399  0.907  1.0000
  O   O34       1.0  0.4151000000000001  0.40470000000000006  0.7951000000000001  1.0000
  O   O35       1.0  0.9545  0.84776  0.20636  1.0000
  C   C52       1.0  0.9456000000000002  0.856  0.26930000000000004  1.0000
  C   C53       1.0  0.9738000000000001  0.8020000000000002  0.31400000000000006  1.0000
  C   C54       1.0  0.9724  0.8036  0.384  1.0000
  H   H18       1.0  0.9533000000000001  0.8399000000000001  0.40700000000000003  1.0000
  O   O36       1.0  0.9151000000000001  0.9047  0.2951  1.0000
  O   O37       1.0  0.5455000000000001  0.84776  0.7936400000000001  1.0000
  C   C55       1.0  0.5544  0.856  0.7307  1.0000
  C   C56       1.0  0.5262  0.8020000000000002  0.686  1.0000
  C   C57       1.0  0.5276  0.8036  0.616  1.0000
  H   H19       1.0  0.5467  0.8399000000000001  0.593  1.0000
  O   O38       1.0  0.5849  0.9047  0.7049  1.0000
  O   O39       1.0  0.0455  0.34776  0.29364000000000007  1.0000
  C   C58       1.0  0.0544  0.356  0.23070000000000002  1.0000
  C   C59       1.0  0.0262  0.302  0.18600000000000003  1.0000
  C   C60       1.0  0.027600000000000006  0.3036  0.116  1.0000
  H   H20       1.0  0.0467  0.3399  0.09300000000000001  1.0000
  O   O40       1.0  0.0849  0.40470000000000006  0.2049  1.0000
  O   O41       1.0  0.9545  0.15224  0.29364000000000007  1.0000
  C   C61       1.0  0.9456000000000002  0.144  0.23070000000000002  1.0000
  C   C62       1.0  0.9738000000000001  0.198  0.18600000000000003  1.0000
  C   C63       1.0  0.9724  0.1964  0.116  1.0000
  H   H21       1.0  0.9533000000000001  0.1601  0.09300000000000001  1.0000
  O   O42       1.0  0.9151000000000001  0.09530000000000001  0.2049  1.0000
  O   O43       1.0  0.4545  0.65224  0.7936400000000001  1.0000
  C   C64       1.0  0.44560000000000005  0.644  0.7307  1.0000
  C   C65       1.0  0.4738  0.698  0.686  1.0000
  C   C66       1.0  0.4724  0.6964  0.616  1.0000
  H   H22       1.0  0.4533  0.6601  0.593  1.0000
  O   O44       1.0  0.4151000000000001  0.5953  0.7049  1.0000
  O   O45       1.0  0.0455  0.65224  0.20636  1.0000
  C   C67       1.0  0.0544  0.644  0.26930000000000004  1.0000
  C   C68       1.0  0.0262  0.698  0.31400000000000006  1.0000
  C   C69       1.0  0.027600000000000006  0.6964  0.384  1.0000
  H   H23       1.0  0.0467  0.6601  0.40700000000000003  1.0000
  O   O46       1.0  0.0849  0.5953  0.2951  1.0000
  O   O47       1.0  0.5455000000000001  0.15224  0.70636  1.0000
  C   C70       1.0  0.5544  0.144  0.7693000000000001  1.0000
  C   C71       1.0  0.5262  0.198  0.8140000000000001  1.0000
  C   C72       1.0  0.5276  0.1964  0.8840000000000001  1.0000
  H   H24       1.0  0.5467  0.1601  0.907  1.0000
  O   O48       1.0  0.5849  0.09530000000000001  0.7951000000000001  1.0000
  O   O49       1.0  0.29364000000000007  0.5455000000000001  0.65224  1.0000
  C   C73       1.0  0.23070000000000002  0.5544  0.644  1.0000
  C   C74       1.0  0.18600000000000003  0.5262  0.698  1.0000
  C   C75       1.0  0.116  0.5276  0.6964  1.0000
  H   H25       1.0  0.09300000000000001  0.5467  0.6601  1.0000
  O   O50       1.0  0.2049  0.5849  0.5953  1.0000
  O   O51       1.0  0.7936400000000001  0.0455  0.15224  1.0000
  C   C76       1.0  0.7307  0.0544  0.144  1.0000
  C   C77       1.0  0.686  0.0262  0.198  1.0000
  C   C78       1.0  0.616  0.027600000000000006  0.1964  1.0000
  H   H26       1.0  0.593  0.0467  0.1601  1.0000
  O   O52       1.0  0.7049  0.0849  0.09530000000000001  1.0000
  O   O53       1.0  0.20636  0.4545  0.15224  1.0000
  C   C79       1.0  0.26930000000000004  0.44560000000000005  0.144  1.0000
  C   C80       1.0  0.31400000000000006  0.4738  0.198  1.0000
  C   C81       1.0  0.384  0.4724  0.1964  1.0000
  H   H27       1.0  0.40700000000000003  0.4533  0.1601  1.0000
  O   O54       1.0  0.2951  0.4151000000000001  0.09530000000000001  1.0000
  O   O55       1.0  0.70636  0.9545  0.65224  1.0000
  C   C82       1.0  0.7693000000000001  0.9456000000000002  0.644  1.0000
  C   C83       1.0  0.8140000000000001  0.9738000000000001  0.698  1.0000
  C   C84       1.0  0.8840000000000001  0.9724  0.6964  1.0000
  H   H28       1.0  0.907  0.9533000000000001  0.6601  1.0000
  O   O56       1.0  0.7951000000000001  0.9151000000000001  0.5953  1.0000
  O   O57       1.0  0.70636  0.0455  0.84776  1.0000
  C   C85       1.0  0.7693000000000001  0.0544  0.856  1.0000
  C   C86       1.0  0.8140000000000001  0.0262  0.8020000000000002  1.0000
  C   C87       1.0  0.8840000000000001  0.027600000000000006  0.8036  1.0000
  H   H29       1.0  0.907  0.0467  0.8399000000000001  1.0000
  O   O58       1.0  0.7951000000000001  0.0849  0.9047  1.0000
  O   O59       1.0  0.20636  0.5455000000000001  0.34776  1.0000
  C   C88       1.0  0.26930000000000004  0.5544  0.356  1.0000
  C   C89       1.0  0.31400000000000006  0.5262  0.302  1.0000
  C   C90       1.0  0.384  0.5276  0.3036  1.0000
  H   H30       1.0  0.40700000000000003  0.5467  0.3399  1.0000
  O   O60       1.0  0.2951  0.5849  0.40470000000000006  1.0000
  O   O61       1.0  0.7936400000000001  0.9545  0.34776  1.0000
  C   C91       1.0  0.7307  0.9456000000000002  0.356  1.0000
  C   C92       1.0  0.686  0.9738000000000001  0.302  1.0000
  C   C93       1.0  0.616  0.9724  0.3036  1.0000
  H   H31       1.0  0.593  0.9533000000000001  0.3399  1.0000
  O   O62       1.0  0.7049  0.9151000000000001  0.40470000000000006  1.0000
  O   O63       1.0  0.29364000000000007  0.4545  0.84776  1.0000
  C   C94       1.0  0.23070000000000002  0.44560000000000005  0.856  1.0000
  C   C95       1.0  0.18600000000000003  0.4738  0.8020000000000002  1.0000
  C   C96       1.0  0.116  0.4724  0.8036  1.0000
  H   H32       1.0  0.09300000000000001  0.4533  0.8399000000000001  1.0000
  O   O64       1.0  0.2049  0.4151000000000001  0.9047  1.0000
  O   O65       1.0  0.65224  0.29364000000000007  0.5455000000000001  1.0000
  C   C97       1.0  0.644  0.23070000000000002  0.5544  1.0000
  C   C98       1.0  0.698  0.18600000000000003  0.5262  1.0000
  C   C99       1.0  0.6964  0.116  0.5276  1.0000
  H   H33       1.0  0.6601  0.09300000000000001  0.5467  1.0000
  O   O66       1.0  0.5953  0.2049  0.5849  1.0000
  O   O67       1.0  0.15224  0.7936400000000001  0.0455  1.0000
  C   C100      1.0  0.144  0.7307  0.0544  1.0000
  C   C101      1.0  0.198  0.686  0.0262  1.0000
  C   C102      1.0  0.1964  0.616  0.027600000000000006  1.0000
  H   H34       1.0  0.1601  0.593  0.0467  1.0000
  O   O68       1.0  0.09530000000000001  0.7049  0.0849  1.0000
  O   O69       1.0  0.15224  0.20636  0.4545  1.0000
  C   C103      1.0  0.144  0.26930000000000004  0.44560000000000005  1.0000
  C   C104      1.0  0.198  0.31400000000000006  0.4738  1.0000
  C   C105      1.0  0.1964  0.384  0.4724  1.0000
  H   H35       1.0  0.1601  0.40700000000000003  0.4533  1.0000
  O   O70       1.0  0.09530000000000001  0.2951  0.4151000000000001  1.0000
  O   O71       1.0  0.65224  0.70636  0.9545  1.0000
  C   C106      1.0  0.644  0.7693000000000001  0.9456000000000002  1.0000
  C   C107      1.0  0.698  0.8140000000000001  0.9738000000000001  1.0000
  C   C108      1.0  0.6964  0.8840000000000001  0.9724  1.0000
  H   H36       1.0  0.6601  0.907  0.9533000000000001  1.0000
  O   O72       1.0  0.5953  0.7951000000000001  0.9151000000000001  1.0000
  O   O73       1.0  0.84776  0.70636  0.0455  1.0000
  C   C109      1.0  0.856  0.7693000000000001  0.0544  1.0000
  C   C110      1.0  0.8020000000000002  0.8140000000000001  0.0262  1.0000
  C   C111      1.0  0.8036  0.8840000000000001  0.027600000000000006  1.0000
  H   H37       1.0  0.8399000000000001  0.907  0.0467  1.0000
  O   O74       1.0  0.9047  0.7951000000000001  0.0849  1.0000
  O   O75       1.0  0.34776  0.20636  0.5455000000000001  1.0000
  C   C112      1.0  0.356  0.26930000000000004  0.5544  1.0000
  C   C113      1.0  0.302  0.31400000000000006  0.5262  1.0000
  C   C114      1.0  0.3036  0.384  0.5276  1.0000
  H   H38       1.0  0.3399  0.40700000000000003  0.5467  1.0000
  O   O76       1.0  0.40470000000000006  0.2951  0.5849  1.0000
  O   O77       1.0  0.34776  0.7936400000000001  0.9545  1.0000
  C   C115      1.0  0.356  0.7307  0.9456000000000002  1.0000
  C   C116      1.0  0.302  0.686  0.9738000000000001  1.0000
  C   C117      1.0  0.3036  0.616  0.9724  1.0000
  H   H39       1.0  0.3399  0.593  0.9533000000000001  1.0000
  O   O78       1.0  0.40470000000000006  0.7049  0.9151000000000001  1.0000
  O   O79       1.0  0.84776  0.29364000000000007  0.4545  1.0000
  C   C118      1.0  0.856  0.23070000000000002  0.44560000000000005  1.0000
  C   C119      1.0  0.8020000000000002  0.18600000000000003  0.4738  1.0000
  C   C120      1.0  0.8036  0.116  0.4724  1.0000
  H   H40       1.0  0.8399000000000001  0.09300000000000001  0.4533  1.0000
  O   O80       1.0  0.9047  0.2049  0.4151000000000001  1.0000
  O   O81       1.0  0.5455000000000001  0.65224  0.29364000000000007  1.0000
  C   C121      1.0  0.5544  0.644  0.23070000000000002  1.0000
  C   C122      1.0  0.5262  0.698  0.18600000000000003  1.0000
  C   C123      1.0  0.5276  0.6964  0.116  1.0000
  H   H41       1.0  0.5467  0.6601  0.09300000000000001  1.0000
  O   O82       1.0  0.5849  0.5953  0.2049  1.0000
  O   O83       1.0  0.0455  0.15224  0.7936400000000001  1.0000
  C   C124      1.0  0.0544  0.144  0.7307  1.0000
  C   C125      1.0  0.0262  0.198  0.686  1.0000
  C   C126      1.0  0.027600000000000006  0.1964  0.616  1.0000
  H   H42       1.0  0.0467  0.1601  0.593  1.0000
  O   O84       1.0  0.0849  0.09530000000000001  0.7049  1.0000
  O   O85       1.0  0.4545  0.15224  0.20636  1.0000
  C   C127      1.0  0.44560000000000005  0.144  0.26930000000000004  1.0000
  C   C128      1.0  0.4738  0.198  0.31400000000000006  1.0000
  C   C129      1.0  0.4724  0.1964  0.384  1.0000
  H   H43       1.0  0.4533  0.1601  0.40700000000000003  1.0000
  O   O86       1.0  0.4151000000000001  0.09530000000000001  0.2951  1.0000
  O   O87       1.0  0.9545  0.65224  0.70636  1.0000
  C   C130      1.0  0.9456000000000002  0.644  0.7693000000000001  1.0000
  C   C131      1.0  0.9738000000000001  0.698  0.8140000000000001  1.0000
  C   C132      1.0  0.9724  0.6964  0.8840000000000001  1.0000
  H   H44       1.0  0.9533000000000001  0.6601  0.907  1.0000
  O   O88       1.0  0.9151000000000001  0.5953  0.7951000000000001  1.0000
  O   O89       1.0  0.0455  0.84776  0.70636  1.0000
  C   C133      1.0  0.0544  0.856  0.7693000000000001  1.0000
  C   C134      1.0  0.0262  0.8020000000000002  0.8140000000000001  1.0000
  C   C135      1.0  0.027600000000000006  0.8036  0.8840000000000001  1.0000
  H   H45       1.0  0.0467  0.8399000000000001  0.907  1.0000
  O   O90       1.0  0.0849  0.9047  0.7951000000000001  1.0000
  O   O91       1.0  0.5455000000000001  0.34776  0.20636  1.0000
  C   C136      1.0  0.5544  0.356  0.26930000000000004  1.0000
  C   C137      1.0  0.5262  0.302  0.31400000000000006  1.0000
  C   C138      1.0  0.5276  0.3036  0.384  1.0000
  H   H46       1.0  0.5467  0.3399  0.40700000000000003  1.0000
  O   O92       1.0  0.5849  0.40470000000000006  0.2951  1.0000
  O   O93       1.0  0.9545  0.34776  0.7936400000000001  1.0000
  C   C139      1.0  0.9456000000000002  0.356  0.7307  1.0000
  C   C140      1.0  0.9738000000000001  0.302  0.686  1.0000
  C   C141      1.0  0.9724  0.3036  0.616  1.0000
  H   H47       1.0  0.9533000000000001  0.3399  0.593  1.0000
  O   O94       1.0  0.9151000000000001  0.40470000000000006  0.7049  1.0000
  O   O95       1.0  0.4545  0.84776  0.29364000000000007  1.0000
  C   C142      1.0  0.44560000000000005  0.856  0.23070000000000002  1.0000
  C   C143      1.0  0.4738  0.8020000000000002  0.18600000000000003  1.0000
  C   C144      1.0  0.4724  0.8036  0.116  1.0000
  H   H48       1.0  0.4533  0.8399000000000001  0.09300000000000001  1.0000
  O   O96       1.0  0.4151000000000001  0.9047  0.2049  1.0000
  Eu  Eu1       1.0  0.65219  0.5  0.25  1.0000
  N   N1        1.0  0.7795  0.5  0.25  1.0000
  C   C145      1.0  0.9185  0.5  0.25  1.0000
  H   H49       1.0  0.9655  0.5  0.25  1.0000
  Eu  Eu2       1.0  0.8478100000000001  0.5  0.75  1.0000
  N   N2        1.0  0.7205  0.5  0.75  1.0000
  C   C146      1.0  0.5815  0.5  0.75  1.0000
  H   H50       1.0  0.5345  0.5  0.75  1.0000
  Eu  Eu3       1.0  0.34781  0.0  0.25  1.0000
  N   N3        1.0  0.2205  0.0  0.25  1.0000
  C   C147      1.0  0.0815  0.0  0.25  1.0000
  H   H51       1.0  0.0345  0.0  0.25  1.0000
  Eu  Eu4       1.0  0.15219  0.0  0.75  1.0000
  N   N4        1.0  0.2795  0.0  0.75  1.0000
  C   C148      1.0  0.4185  0.0  0.75  1.0000
  H   H52       1.0  0.4655000000000001  0.0  0.75  1.0000
  Eu  Eu5       1.0  0.25  0.65219  0.5  1.0000
  N   N5        1.0  0.25  0.7795  0.5  1.0000
  C   C149      1.0  0.25  0.9185  0.5  1.0000
  H   H53       1.0  0.25  0.9655  0.5  1.0000
  Eu  Eu6       1.0  0.75  0.8478100000000001  0.5  1.0000
  N   N6        1.0  0.75  0.7205  0.5  1.0000
  C   C150      1.0  0.75  0.5815  0.5  1.0000
  H   H54       1.0  0.75  0.5345  0.5  1.0000
  Eu  Eu7       1.0  0.25  0.34781  0.0  1.0000
  N   N7        1.0  0.25  0.2205  0.0  1.0000
  C   C151      1.0  0.25  0.0815  0.0  1.0000
  H   H55       1.0  0.25  0.0345  0.0  1.0000
  Eu  Eu8       1.0  0.75  0.15219  0.0  1.0000
  N   N8        1.0  0.75  0.2795  0.0  1.0000
  C   C152      1.0  0.75  0.4185  0.0  1.0000
  H   H56       1.0  0.75  0.4655000000000001  0.0  1.0000
  Eu  Eu9       1.0  0.5  0.25  0.65219  1.0000
  N   N9        1.0  0.5  0.25  0.7795  1.0000
  C   C153      1.0  0.5  0.25  0.9185  1.0000
  H   H57       1.0  0.5  0.25  0.9655  1.0000
  Eu  Eu10      1.0  0.5  0.75  0.8478100000000001  1.0000
  N   N10       1.0  0.5  0.75  0.7205  1.0000
  C   C154      1.0  0.5  0.75  0.5815  1.0000
  H   H58       1.0  0.5  0.75  0.5345  1.0000
  Eu  Eu11      1.0  0.0  0.25  0.34781  1.0000
  N   N11       1.0  0.0  0.25  0.2205  1.0000
  C   C155      1.0  0.0  0.25  0.0815  1.0000
  H   H59       1.0  0.0  0.25  0.0345  1.0000
  Eu  Eu12      1.0  0.0  0.75  0.15219  1.0000
  N   N12       1.0  0.0  0.75  0.2795  1.0000
  C   C156      1.0  0.0  0.75  0.4185  1.0000
  H   H60       1.0  0.0  0.75  0.4655000000000001  1.0000
  Eu  Eu13      1.0  0.34781  0.5  0.75  1.0000
  N   N13       1.0  0.2205  0.5  0.75  1.0000
  C   C157      1.0  0.0815  0.5  0.75  1.0000
  H   H61       1.0  0.0345  0.5  0.75  1.0000
  Eu  Eu14      1.0  0.15219  0.5  0.25  1.0000
  N   N14       1.0  0.2795  0.5  0.25  1.0000
  C   C158      1.0  0.4185  0.5  0.25  1.0000
  H   H62       1.0  0.4655000000000001  0.5  0.25  1.0000
  Eu  Eu15      1.0  0.65219  0.0  0.75  1.0000
  N   N15       1.0  0.7795  0.0  0.75  1.0000
  C   C159      1.0  0.9185  0.0  0.75  1.0000
  H   H63       1.0  0.9655  0.0  0.75  1.0000
  Eu  Eu16      1.0  0.8478100000000001  0.0  0.25  1.0000
  N   N16       1.0  0.7205  0.0  0.25  1.0000
  C   C160      1.0  0.5815  0.0  0.25  1.0000
  H   H64       1.0  0.5345  0.0  0.25  1.0000
  Eu  Eu17      1.0  0.75  0.34781  0.5  1.0000
  N   N17       1.0  0.75  0.2205  0.5  1.0000
  C   C161      1.0  0.75  0.0815  0.5  1.0000
  H   H65       1.0  0.75  0.0345  0.5  1.0000
  Eu  Eu18      1.0  0.25  0.15219  0.5  1.0000
  N   N18       1.0  0.25  0.2795  0.5  1.0000
  C   C162      1.0  0.25  0.4185  0.5  1.0000
  H   H66       1.0  0.25  0.4655000000000001  0.5  1.0000
  Eu  Eu19      1.0  0.75  0.65219  0.0  1.0000
  N   N19       1.0  0.75  0.7795  0.0  1.0000
  C   C163      1.0  0.75  0.9185  0.0  1.0000
  H   H67       1.0  0.75  0.9655  0.0  1.0000
  Eu  Eu20      1.0  0.25  0.8478100000000001  0.0  1.0000
  N   N20       1.0  0.25  0.7205  0.0  1.0000
  C   C164      1.0  0.25  0.5815  0.0  1.0000
  H   H68       1.0  0.25  0.5345  0.0  1.0000
  Eu  Eu21      1.0  0.5  0.75  0.34781  1.0000
  N   N21       1.0  0.5  0.75  0.2205  1.0000
  C   C165      1.0  0.5  0.75  0.0815  1.0000
  H   H69       1.0  0.5  0.75  0.0345  1.0000
  Eu  Eu22      1.0  0.5  0.25  0.15219  1.0000
  N   N22       1.0  0.5  0.25  0.2795  1.0000
  C   C166      1.0  0.5  0.25  0.4185  1.0000
  H   H70       1.0  0.5  0.25  0.4655000000000001  1.0000
  Eu  Eu23      1.0  0.0  0.75  0.65219  1.0000
  N   N23       1.0  0.0  0.75  0.7795  1.0000
  C   C167      1.0  0.0  0.75  0.9185  1.0000
  H   H71       1.0  0.0  0.75  0.9655  1.0000
  Eu  Eu24      1.0  0.0  0.25  0.8478100000000001  1.0000
  N   N24       1.0  0.0  0.25  0.7205  1.0000
  C   C168      1.0  0.0  0.25  0.5815  1.0000
  H   H72       1.0  0.0  0.25  0.5345  1.0000
