data_image0
_chemical_formula_structural       N4C8H8CuF6Si
_chemical_formula_sum              "N4 C8 H8 Cu1 F6 Si1"
_cell_length_a       6.976
_cell_length_b       6.976
_cell_length_c       7.903
_cell_angle_alpha    90.0
_cell_angle_beta     90.0
_cell_angle_gamma    90.0

_symmetry_space_group_name_H-M    'P 1'
_symmetry_Int_Tables_number       1

loop_
  _symmetry_equiv_pos_as_xyz
  'x,y,z'

loop_
  _atom_site_type_symbol
  _atom_site_label
  _atom_site_symmetry_multiplicity
  _atom_site_fract_x
  _atom_site_fract_y
  _atom_site_fract_z
  _atom_site_occupancy
  N   N1        1.0  0.552868  0.252122  0.59758  1.0000
  N   N2        1.0  0.552868  0.853614  0.59758  1.0000
  N   N3        1.0  0.853615  0.552868  0.59758  1.0000
  N   N4        1.0  0.252121  0.552868  0.59758  1.0000
  C   C1        1.0  0.552868  0.153324  0.4513790000000001  1.0000
  C   C2        1.0  0.552868  0.952413  0.743781  1.0000
  C   C3        1.0  0.552868  0.952413  0.4513790000000001  1.0000
  C   C4        1.0  0.552868  0.153324  0.743781  1.0000
  C   C5        1.0  0.952413  0.552868  0.4513790000000001  1.0000
  C   C6        1.0  0.153323  0.552868  0.743781  1.0000
  C   C7        1.0  0.153323  0.552868  0.4513790000000001  1.0000
  C   C8        1.0  0.952413  0.552868  0.743781  1.0000
  H   H1        1.0  0.552868  0.23233800000000002  0.3326280000000001  1.0000
  H   H2        1.0  0.552868  0.873398  0.862532  1.0000
  H   H3        1.0  0.552868  0.873398  0.3326280000000001  1.0000
  H   H4        1.0  0.552868  0.23233800000000002  0.862532  1.0000
  H   H5        1.0  0.873398  0.552868  0.3326280000000001  1.0000
  H   H6        1.0  0.23233800000000002  0.552868  0.862532  1.0000
  H   H7        1.0  0.23233800000000002  0.552868  0.3326280000000001  1.0000
  H   H8        1.0  0.873398  0.552868  0.862532  1.0000
  Cu  Cu1       1.0  0.552868  0.552868  0.597581  1.0000
  F   F1        1.0  0.552868  0.552868  0.316727  1.0000
  F   F2        1.0  0.552868  0.552868  0.878433  1.0000
  F   F3        1.0  0.37891300000000006  0.378914  0.097604  1.0000
  F   F4        1.0  0.726823  0.726823  0.097604  1.0000
  F   F5        1.0  0.726823  0.378914  0.097604  1.0000
  F   F6        1.0  0.37891300000000006  0.726823  0.097604  1.0000
  Si  Si1       1.0  0.552868  0.552868  0.097604  1.0000
