data_image0
_chemical_formula_structural       C20H7N2O8Zn2OHC2H5OHC2H5C2H5
_chemical_formula_sum              "C26 H24 N2 O10 Zn2"
_cell_length_a       8.92763
_cell_length_b       10.64263
_cell_length_c       10.05433
_cell_angle_alpha    89.95814999999999
_cell_angle_beta     88.99469
_cell_angle_gamma    92.51781

_space_group_name_H-M_alt    "P 1"
_space_group_IT_number       1

loop_
  _space_group_symop_operation_xyz
  'x, y, z'

loop_
  _atom_site_type_symbol
  _atom_site_label
  _atom_site_symmetry_multiplicity
  _atom_site_fract_x
  _atom_site_fract_y
  _atom_site_fract_z
  _atom_site_occupancy
  C   C1        1.0  0.50435  0.26114  0.49982  1.0000
  C   C2        1.0  0.60251  0.93658  0.4095  1.0000
  C   C3        1.0  0.5029899999999999  0.8707199999999999  0.49609  1.0000
  C   C4        1.0  0.39504999999999996  0.93247  0.56764  1.0000
  C   C5        1.0  0.3495  0.9231699999999999  0.71084  1.0000
  C   C6        1.0  0.35029  0.06569  0.71005  1.0000
  C   C7        1.0  0.38846  0.43993  0.0721  1.0000
  C   C8        1.0  0.614  0.55922  0.06929  1.0000
  C   C9        1.0  0.6104599999999999  0.56516  0.92586  1.0000
  C   C10       1.0  0.39346  0.43116  0.93105  1.0000
  C   C11       1.0  0.22794999999999999  0.44794  0.9248499999999998  1.0000
  C   C12       1.0  0.21926  0.49935  0.50075  1.0000
  C   C13       1.0  0.22844  0.47447  0.07334  1.0000
  C   C14       1.0  0.50221  0.73891  0.49956  1.0000
  C   C15       1.0  0.78071  0.49994  0.49936  1.0000
  C   C16       1.0  0.06543  0.4990200000000001  0.50127  1.0000
  C   C17       1.0  0.9344899999999999  0.49917  0.4993000000000001  1.0000
  C   C18       1.0  0.39729  0.06059  0.56717  1.0000
  C   C19       1.0  0.50948  0.12886  0.49762  1.0000
  C   C20       1.0  0.60999  0.06697  0.41167  1.0000
  H   H1        1.0  0.15394999999999998  0.41348999999999997  0.13789  1.0000
  H   H2        1.0  0.68133  0.88708  0.34772  1.0000
  H   H3        1.0  0.23558999999999997  0.87816  0.72506  1.0000
  H   H4        1.0  0.43785  0.88507  0.77417  1.0000
  H   H5        1.0  0.23639  0.10219999999999999  0.72042  1.0000
  H   H6        1.0  0.43741  0.11062  0.77433  1.0000
  H   H7        1.0  0.20070999999999997  0.53103  0.86403  1.0000
  N   N1        1.0  0.49901  0.49914000000000003  0.1428  1.0000
  N   N2        1.0  0.49901  0.49918  0.85715  1.0000
  O   O1        1.0  0.50002  0.31679  0.61469  1.0000
  O   O2        1.0  0.5  0.31676  0.38535  1.0000
  O   O3        1.0  0.28535  0.50002  0.61465  1.0000
  O   O4        1.0  0.28534  0.49998  0.38531  1.0000
  O   O5        1.0  0.5  0.68324  0.61465  1.0000
  O   O6        1.0  0.4999799999999998  0.68321  0.38531  1.0000
  O   O7        1.0  0.7146599999999999  0.50002  0.61469  1.0000
  O   O8        1.0  0.71465  0.49998  0.38535  1.0000
  Zn  Zn1       1.0  0.50001  0.50002  0.65313  1.0000
  Zn  Zn2       1.0  0.49999  0.49998  0.34687  1.0000
  O   O9        1.0  0.72112  0.12822  0.33562  1.0000
  H   H8        1.0  0.74057  0.21411  0.37064  1.0000
  C   C21       1.0  0.13663  0.32775  0.8832400000000001  1.0000
  C   C22       1.0  0.16272  0.20912000000000003  0.96534  1.0000
  H   H9        1.0  0.11947  0.21794  0.06872  1.0000
  H   H10       1.0  0.2835  0.18889000000000003  0.9669899999999999  1.0000
  H   H11       1.0  0.10038  0.12756  0.9206799999999999  1.0000
  H   H12       1.0  0.01553  0.34612  0.89011  1.0000
  H   H13       1.0  0.16314  0.30856  0.7771  1.0000
  O   O10       1.0  0.21458  0.60386  0.09551  1.0000
  H   H14       1.0  0.21322  0.6168  0.19286  1.0000
  C   C23       1.0  0.74842  0.61579  0.13967  1.0000
  C   C24       1.0  0.8672699999999999  0.51703  0.15236  1.0000
  H   H15       1.0  0.81795  0.42445999999999995  0.18558  1.0000
  H   H16       1.0  0.9532699999999998  0.55079  0.22349000000000002  1.0000
  H   H17       1.0  0.9220599999999999  0.49846  0.05611  1.0000
  H   H18       1.0  0.79997  0.69995  0.09035  1.0000
  H   H19       1.0  0.71424  0.65637  0.23532999999999998  1.0000
  C   C25       1.0  0.71751  0.65909  0.8525899999999998  1.0000
  C   C26       1.0  0.87911  0.61911  0.8337399999999999  1.0000
  H   H20       1.0  0.88288  0.5155  0.82617  1.0000
  H   H21       1.0  0.92801  0.66055  0.74035  1.0000
  H   H22       1.0  0.95173  0.65595  0.91423  1.0000
  H   H23       1.0  0.67954  0.678  0.7543  1.0000
  H   H24       1.0  0.71508  0.75323  0.89983  1.0000
