data_image0
_chemical_formula_structural       Ba2Br2C52H52O42P8S6
_chemical_formula_sum              "Ba2 Br2 C52 H52 O42 P8 S6"
_cell_length_a       8.40021
_cell_length_b       12.914639999999999
_cell_length_c       18.71682
_cell_angle_alpha    98.93129
_cell_angle_beta     91.91584999999999
_cell_angle_gamma    99.5466

_space_group_name_H-M_alt    "P 1"
_space_group_IT_number       1

loop_
  _space_group_symop_operation_xyz
  'x, y, z'

loop_
  _atom_site_type_symbol
  _atom_site_label
  _atom_site_symmetry_multiplicity
  _atom_site_fract_x
  _atom_site_fract_y
  _atom_site_fract_z
  _atom_site_occupancy
  Ba  Ba1       1.0  0.8527799999999999  0.5483399999999999  0.46506999999999993  1.0000
  Ba  Ba2       1.0  0.33706  0.4517499999999999  0.53494  1.0000
  Br  Br1       1.0  0.94776  0.84584  0.79337  1.0000
  Br  Br2       1.0  0.56032  0.30785  0.16497999999999996  1.0000
  C   C1        1.0  0.72664  0.8845499999999998  0.28906  1.0000
  C   C2        1.0  0.93028  0.3669999999999999  0.08948  1.0000
  C   C3        1.0  0.7802699999999999  0.40543  0.95288  1.0000
  C   C4        1.0  0.20001999999999995  0.7785899999999998  0.26522999999999997  1.0000
  C   C5        1.0  0.94508  0.44308  0.9748  1.0000
  C   C6        1.0  0.7153099999999999  0.41832999999999987  0.8857799999999999  1.0000
  C   C7        1.0  0.81388  0.46257  0.8351799999999999  1.0000
  C   C8        1.0  0.9779  0.5055899999999999  0.8567899999999999  1.0000
  C   C9        1.0  0.04183  0.5002  0.92786  1.0000
  C   C10       1.0  0.7552599999999998  0.46217  0.76296  1.0000
  C   C11       1.0  0.86275  0.4987699999999998  0.7129599999999998  1.0000
  C   C12       1.0  0.62928  0.77474  0.29002  1.0000
  C   C13       1.0  0.022439999999999974  0.5469099999999999  0.73377  1.0000
  C   C14       1.0  0.07811999999999997  0.5543699999999999  0.80744  1.0000
  C   C15       1.0  0.16707  0.48969  0.0699  1.0000
  C   C16       1.0  0.14334999999999995  0.75224  0.18475  1.0000
  C   C17       1.0  0.22791000000000003  0.49272  0.14337  1.0000
  C   C18       1.0  0.12436999999999998  0.44352999999999987  0.19196  1.0000
  C   C19       1.0  0.9825399999999999  0.3745699999999999  0.16215  1.0000
  C   C20       1.0  0.2283399999999999  0.6133499999999998  0.8340499999999997  1.0000
  C   C21       1.0  0.28656  0.61923  0.90565  1.0000
  C   C22       1.0  0.20160999999999996  0.5521  0.95162  1.0000
  C   C23       1.0  0.51482  0.2690199999999999  0.31129  1.0000
  C   C24       1.0  0.26542  0.53769  0.02072  1.0000
  C   C25       1.0  0.42982999999999993  0.5557399999999999  0.03796  1.0000
  C   C26       1.0  0.3922999999999998  0.541  0.16655  1.0000
  C   C27       1.0  0.49673  0.56593  0.10868  1.0000
  C   C28       1.0  0.2860199999999999  0.7867099999999998  0.6300899999999999  1.0000
  C   C29       1.0  0.43896999999999997  0.55439  0.24361  1.0000
  C   C30       1.0  0.32126  0.52044  0.29162  1.0000
  C   C31       1.0  0.16813999999999996  0.4606999999999999  0.26758999999999994  1.0000
  C   C32       1.0  0.74975  0.18174999999999994  0.53917  1.0000
  C   C33       1.0  0.4320599999999999  0.8072899999999997  0.46812  1.0000
  C   C34       1.0  0.44073  0.23497999999999997  0.23368  1.0000
  C   C35       1.0  0.40468999999999994  0.9819999999999998  0.44510999999999995  1.0000
  C   C36       1.0  0.34116999999999986  0.8740399999999998  0.43905999999999995  1.0000
  C   C37       1.0  0.5792  0.84806  0.50863  1.0000
  C   C38       1.0  0.64063  0.95991  0.5182  1.0000
  C   C39       1.0  0.55039  0.027340000000000003  0.48602  1.0000
  C   C40       1.0  0.21582999999999994  0.8777399999999997  0.6058599999999998  1.0000
  C   C41       1.0  0.60736  0.13886  0.49606  1.0000
  C   C42       1.0  0.8478399999999999  0.11641999999999998  0.56554  1.0000
  C   C43       1.0  0.7908299999999998  0.006280000000000007  0.55675  1.0000
  C   C44       1.0  0.08611999999999999  0.19858999999999996  0.32949  1.0000
  C   C45       1.0  0.08899  0.21449  0.74797  1.0000
  C   C46       1.0  0.09961999999999999  0.10402999999999997  0.27158  1.0000
  C   C47       1.0  0.7329499999999999  0.7084299999999999  0.6828  1.0000
  C   C48       1.0  0.75096  0.74388  0.7646599999999999  1.0000
  C   C49       1.0  0.16397  0.18828  0.81737  1.0000
  C   C50       1.0  0.48253000000000007  0.18560999999999997  0.69191  1.0000
  C   C51       1.0  0.4579599999999999  0.07793999999999993  0.7177999999999999  1.0000
  C   C52       1.0  0.011409999999999976  0.4337699999999999  0.04464  1.0000
  H   H1        1.0  0.5465  0.7796899999999998  0.33476  1.0000
  H   H2        1.0  0.6336499999999999  0.6385999999999998  0.67083  1.0000
  H   H3        1.0  0.75875  0.9228799999999998  0.34577  1.0000
  H   H4        1.0  0.7560999999999999  0.6745899999999999  0.7921499999999999  1.0000
  H   H5        1.0  0.6453399999999999  0.78001  0.78324  1.0000
  H   H6        1.0  0.5536099999999999  0.74688  0.23908  1.0000
  H   H7        1.0  0.45800999999999986  0.33606999999999987  0.3367  1.0000
  H   H8        1.0  0.64639  0.2918299999999999  0.3095  1.0000
  H   H9        1.0  0.31894  0.25625999999999993  0.23021999999999998  1.0000
  H   H10       1.0  0.43412  0.14854  0.21551  1.0000
  H   H11       1.0  0.83949  0.8763199999999999  0.26227  1.0000
  H   H12       1.0  0.15639999999999993  0.9205199999999998  0.65059  1.0000
  H   H13       1.0  0.23158999999999996  0.7085599999999999  0.15619  1.0000
  H   H14       1.0  0.13741  0.2983899999999999  0.74291  1.0000
  H   H15       1.0  0.29628999999999994  0.19845999999999994  0.8179  1.0000
  H   H16       1.0  0.13569  0.24278999999999992  0.8654499999999999  1.0000
  H   H17       1.0  0.11688999999999997  0.10477  0.8237  1.0000
  H   H18       1.0  0.58349  0.18843999999999994  0.6563  1.0000
  H   H19       1.0  0.3803  0.19344  0.65672  1.0000
  H   H20       1.0  0.52818  0.08321000000000003  0.76989  1.0000
  H   H21       1.0  0.49890999999999996  0.017629999999999958  0.67709  1.0000
  H   H22       1.0  0.21023  0.70136  0.28235  1.0000
  H   H23       1.0  0.3110899999999999  0.93488  0.58652  1.0000
  H   H24       1.0  0.33001999999999987  0.050699999999999995  0.72724  1.0000
  H   H25       1.0  0.81999  0.49148  0.65692  1.0000
  H   H26       1.0  0.5874  0.3902199999999999  0.87351  1.0000
  H   H27       1.0  0.9083  0.32645  0.19461  1.0000
  H   H28       1.0  0.2990999999999999  0.6615599999999998  0.80028  1.0000
  H   H29       1.0  0.35551  0.53072  0.34881  1.0000
  H   H30       1.0  0.6965  0.37005  0.9883999999999998  1.0000
  H   H31       1.0  0.82252  0.3105299999999999  0.06986  1.0000
  H   H32       1.0  0.32081  0.82733  0.27138  1.0000
  H   H33       1.0  0.50773  0.56142  0.99398  1.0000
  H   H34       1.0  0.1251699999999999  0.8456899999999996  0.5608799999999999  1.0000
  H   H35       1.0  0.33795  0.030290000000000004  0.41844  1.0000
  H   H36       1.0  0.86667  0.9582899999999999  0.5793  1.0000
  H   H37       1.0  0.79194  0.26681  0.54695  1.0000
  H   H38       1.0  0.38383999999999996  0.7231399999999999  0.4619  1.0000
  H   H39       1.0  0.02653000000000001  0.6979  0.17865  1.0000
  H   H40       1.0  0.40617999999999993  0.8191299999999998  0.65809  1.0000
  H   H41       1.0  0.30086999999999997  0.7280199999999998  0.58184  1.0000
  H   H42       1.0  0.76322  0.16138  0.35753  1.0000
  H   H43       1.0  0.55634  0.94347  0.12618  1.0000
  H   H44       1.0  0.80944  0.03026999999999993  0.7648299999999998  1.0000
  H   H45       1.0  0.20729  0.24496999999999988  0.3464  1.0000
  H   H46       1.0  0.89242  0.6584099999999999  0.03953  1.0000
  H   H47       1.0  0.5787  0.7885699999999998  0.03683  1.0000
  H   H48       1.0  0.9514699999999998  0.9571999999999999  0.11501  1.0000
  H   H49       1.0  0.99584  0.03917  0.26982  1.0000
  H   H50       1.0  0.20882  0.07136  0.28474  1.0000
  H   H51       1.0  0.10481999999999998  0.12722999999999998  0.21698  1.0000
  H   H52       1.0  0.84752  0.6862099999999998  0.66324  1.0000
  O   O1        1.0  0.87309  0.4258899999999999  0.32514  1.0000
  O   O2        1.0  0.17593999999999999  0.12426999999999998  0.5534099999999998  1.0000
  O   O3        1.0  0.12054000000000001  0.1438  0.68714  1.0000
  O   O4        1.0  0.12241999999999999  0.4343699999999999  0.41438  1.0000
  O   O5        1.0  0.57837  0.6337999999999999  0.53638  1.0000
  O   O6        1.0  0.34151  0.23184999999999995  0.4655099999999999  1.0000
  O   O7        1.0  0.4854200000000001  0.18402  0.3499499999999999  1.0000
  O   O8        1.0  0.41445999999999983  0.4505699999999999  0.75562  1.0000
  O   O9        1.0  0.5085299999999999  0.2673999999999999  0.7524999999999997  1.0000
  O   O10       1.0  0.6595  0.6271  0.36880999999999997  1.0000
  O   O11       1.0  0.63198  0.49348  0.33293  1.0000
  O   O12       1.0  0.69583  0.7924499999999998  0.65028  1.0000
  O   O13       1.0  0.98051  0.25872  0.30493  1.0000
  O   O14       1.0  0.74078  0.7070799999999998  0.30191  1.0000
  O   O15       1.0  0.8481999999999998  0.7681899999999999  0.53453  1.0000
  O   O16       1.0  0.08115999999999994  0.6859499999999997  0.40480999999999995  1.0000
  O   O17       1.0  0.0019699999999999523  0.8710499999999998  0.4405899999999999  1.0000
  O   O18       1.0  0.07374999999999998  0.06539999999999996  0.42368999999999996  1.0000
  O   O19       1.0  0.01569999999999999  0.24648999999999993  0.46186  1.0000
  O   O20       1.0  0.80047  0.10644  0.38143  1.0000
  O   O21       1.0  0.48445000000000005  0.9937299999999998  0.28409  1.0000
  O   O22       1.0  0.72959  0.06196999999999998  0.22781  1.0000
  O   O23       1.0  0.09307999999999993  0.8312299999999998  0.3076  1.0000
  O   O24       1.0  0.5477199999999999  0.8915299999999998  0.16025  1.0000
  O   O25       1.0  0.8331  0.22456999999999996  0.83188  1.0000
  O   O26       1.0  0.8250299999999998  0.26785999999999993  0.7086899999999999  1.0000
  O   O27       1.0  0.8021499999999998  0.06811999999999997  0.7230999999999999  1.0000
  O   O28       1.0  0.74619  0.72375  0.15505  1.0000
  O   O29       1.0  0.80069  0.54225  0.14601  1.0000
  O   O30       1.0  0.77781  0.62347  0.030389999999999997  1.0000
  O   O31       1.0  0.6055799999999999  0.68814  0.9123499999999999  1.0000
  O   O32       1.0  0.43245999999999996  0.8177999999999999  0.8962399999999999  1.0000
  O   O33       1.0  0.46138999999999997  0.7681499999999999  0.02345  1.0000
  O   O34       1.0  0.3166099999999999  0.57414  0.6748999999999999  1.0000
  O   O35       1.0  0.25969999999999993  0.9558099999999999  0.16758  1.0000
  O   O36       1.0  0.15201999999999996  0.82863  0.05974  1.0000
  O   O37       1.0  0.9498899999999999  0.9018899999999997  0.14631  1.0000
  O   O38       1.0  0.06729000000000006  0.56572  0.58563  1.0000
  O   O39       1.0  0.53021  0.37298999999999993  0.6312  1.0000
  O   O40       1.0  0.18535999999999994  0.7443999999999997  0.68025  1.0000
  O   O41       1.0  0.61134  0.36628999999999995  0.46362999999999993  1.0000
  O   O42       1.0  0.10855  0.31414  0.5952  1.0000
  P   P1        1.0  0.04103999999999998  0.39476999999999995  0.33633  1.0000
  P   P2        1.0  0.67288  0.7540299999999999  0.5561  1.0000
  P   P3        1.0  0.13244  0.81974  0.39874  1.0000
  P   P4        1.0  0.14866999999999997  0.6053199999999999  0.66368  1.0000
  P   P5        1.0  0.05907999999999997  0.17717999999999995  0.60313  1.0000
  P   P6        1.0  0.65755  0.5710799999999999  0.27828  1.0000
  P   P7        1.0  0.51952  0.22995999999999991  0.4433599999999999  1.0000
  P   P8        1.0  0.551  0.39253  0.72556  1.0000
  S   S1        1.0  0.99582  0.15256  0.40287  1.0000
  S   S2        1.0  0.62036  0.9629699999999999  0.24061999999999997  1.0000
  S   S3        1.0  0.8796999999999997  0.19585999999999995  0.75553  1.0000
  S   S4        1.0  0.70887  0.6141  0.11286  1.0000
  S   S5        1.0  0.45119  0.72542  0.9339  1.0000
  S   S6        1.0  0.13020999999999994  0.8629999999999998  0.13874  1.0000
