data_image0
_chemical_formula_structural       C244H92O64Zn12
_chemical_formula_sum              "C244 H92 O64 Zn12"
_cell_length_a       28.1367
_cell_length_b       18.61071
_cell_length_c       16.94296
_cell_angle_alpha    89.61709
_cell_angle_beta     61.44624000000001
_cell_angle_gamma    89.69679999999998

_space_group_name_H-M_alt    "P 1"
_space_group_IT_number       1

loop_
  _space_group_symop_operation_xyz
  'x, y, z'

loop_
  _atom_site_type_symbol
  _atom_site_label
  _atom_site_symmetry_multiplicity
  _atom_site_fract_x
  _atom_site_fract_y
  _atom_site_fract_z
  _atom_site_occupancy
  C   C1        1.0  0.70089  0.26582  0.6772099999999999  1.0000
  C   C2        1.0  0.10300000000000001  0.50065  0.4840699999999999  1.0000
  C   C3        1.0  0.20023000000000007  0.19794  0.9032999999999998  1.0000
  C   C4        1.0  0.61751  0.32662  0.04718999999999999  1.0000
  C   C5        1.0  0.38543000000000005  0.6749  0.9494399999999997  1.0000
  C   C6        1.0  0.3904800000000001  0.31818  0.9531299999999998  1.0000
  C   C7        1.0  0.6276899999999997  0.65518  0.04231999999999999  1.0000
  C   C8        1.0  0.11749  0.82654  0.04715999999999999  1.0000
  C   C9        1.0  0.8853499999999999  0.17482  0.94955  1.0000
  C   C10       1.0  0.8904999999999996  0.81816  0.95312  1.0000
  C   C11       1.0  0.12766  0.15524  0.04234  1.0000
  C   C12       1.0  0.6475  0.31569  0.09301999999999998  1.0000
  C   C13       1.0  0.42267000000000005  0.9998799999999999  0.4236699999999999  1.0000
  C   C14       1.0  0.35672999999999994  0.69019  0.9026399999999999  1.0000
  C   C15       1.0  0.36475000000000013  0.2994  0.9040799999999998  1.0000
  C   C16       1.0  0.66069  0.6553  0.08318999999999997  1.0000
  C   C17       1.0  0.14750000000000002  0.81553  0.09294999999999998  1.0000
  C   C18       1.0  0.8565599999999997  0.18998  0.9028999999999999  1.0000
  C   C19       1.0  0.8647699999999999  0.79936  0.90407  1.0000
  C   C20       1.0  0.16064999999999996  0.15537  0.08320999999999998  1.0000
  C   C21       1.0  0.7402  0.1879  0.79968  1.0000
  C   C22       1.0  0.26585  0.81955  0.19418999999999995  1.0000
  C   C23       1.0  0.27282  0.17504  0.19786  1.0000
  C   C24       1.0  0.603  0.0006600000000000002  0.4840399999999999  1.0000
  C   C25       1.0  0.77581  0.73741  0.76554  1.0000
  C   C26       1.0  0.23971000000000012  0.68741  0.8000999999999998  1.0000
  C   C27       1.0  0.7658999999999999  0.31965  0.19427999999999995  1.0000
  C   C28       1.0  0.77284  0.67502  0.19785  1.0000
  C   C29       1.0  0.27579  0.23744  0.7655599999999998  1.0000
  C   C30       1.0  0.7730999999999998  0.17904  0.8406799999999998  1.0000
  C   C31       1.0  0.23555  0.83297  0.14897999999999995  1.0000
  C   C32       1.0  0.24374  0.15766  0.15281  1.0000
  C   C33       1.0  0.7956500000000001  0.77318  0.8148799999999998  1.0000
  C   C34       1.0  0.27334000000000014  0.67935  0.8399099999999998  1.0000
  C   C35       1.0  0.11945000000000001  0.37556  0.4398799999999999  1.0000
  C   C36       1.0  0.73556  0.33308  0.14913  1.0000
  C   C37       1.0  0.74377  0.65762  0.15279  1.0000
  C   C38       1.0  0.29562000000000005  0.27322  0.8148999999999997  1.0000
  C   C39       1.0  0.07370000000000006  0.10087  0.9352799999999998  1.0000
  C   C40       1.0  0.92701  0.89861  0.0652  1.0000
  C   C41       1.0  0.9269999999999998  0.10166  0.06433999999999998  1.0000
  C   C42       1.0  0.07319000000000005  0.8984199999999999  0.9354499999999998  1.0000
  C   C43       1.0  0.57371  0.60087  0.9352799999999998  1.0000
  C   C44       1.0  0.42701  0.39861  0.0652  1.0000
  C   C45       1.0  0.42699999999999994  0.60166  0.06433  1.0000
  C   C46       1.0  0.9268399999999999  0.6299  0.41260999999999987  1.0000
  C   C47       1.0  0.5732000000000002  0.39841  0.9354399999999998  1.0000
  C   C48       1.0  0.5511499999999998  0.12899  0.4821  1.0000
  C   C49       1.0  0.47902000000000006  0.8709599999999998  0.4094799999999999  1.0000
  C   C50       1.0  0.47135  0.13049  0.42772  1.0000
  C   C51       1.0  0.5737899999999999  0.87384  0.42737999999999987  1.0000
  C   C52       1.0  0.05115000000000001  0.62898  0.48212  1.0000
  C   C53       1.0  0.9790000000000001  0.37094  0.40955999999999987  1.0000
  C   C54       1.0  0.97135  0.63048  0.42772  1.0000
  C   C55       1.0  0.07376999999999997  0.37382  0.4274499999999999  1.0000
  C   C56       1.0  0.5297  0.19369  0.4715399999999999  1.0000
  C   C57       1.0  0.9295499999999998  0.37018  0.4076899999999999  1.0000
  C   C58       1.0  0.50943  0.80801  0.39761999999999986  1.0000
  C   C59       1.0  0.4922000000000001  0.19512  0.4396099999999999  1.0000
  C   C60       1.0  0.55712  0.81003  0.4046599999999999  1.0000
  C   C61       1.0  0.029700000000000032  0.69368  0.4715399999999999  1.0000
  C   C62       1.0  0.009390000000000042  0.30799  0.3977499999999999  1.0000
  C   C63       1.0  0.99221  0.6951  0.4396099999999999  1.0000
  C   C64       1.0  0.05709  0.31  0.40478  1.0000
  C   C65       1.0  0.49313000000000007  0.06524  0.4372899999999999  1.0000
  C   C66       1.0  0.5441700000000002  0.93669  0.4381299999999999  1.0000
  C   C67       1.0  0.53556  0.065  0.45901  1.0000
  C   C68       1.0  0.08732  0.6277  0.51653  1.0000
  C   C69       1.0  0.49812000000000006  0.93586  0.4253699999999999  1.0000
  C   C70       1.0  0.99313  0.56523  0.43730999999999987  1.0000
  C   C71       1.0  0.044159999999999984  0.43668  0.43818  1.0000
  C   C72       1.0  0.03555000000000004  0.56499  0.4590399999999999  1.0000
  C   C73       1.0  0.99811  0.43583999999999995  0.42542  1.0000
  C   C74       1.0  0.9717199999999998  0.50026  0.4272999999999999  1.0000
  C   C75       1.0  0.060770000000000025  0.5007  0.4609299999999999  1.0000
  C   C76       1.0  0.4717299999999999  0.0002699999999999999  0.42727  1.0000
  C   C77       1.0  0.56078  0.0007099999999999999  0.4609  1.0000
  C   C78       1.0  0.8981  0.43383  0.42368  1.0000
  C   C79       1.0  0.6194599999999999  0.87557  0.4398399999999999  1.0000
  C   C80       1.0  0.11736  0.56494  0.51175  1.0000
  C   C81       1.0  0.13129000000000002  0.4365899999999999  0.47782999999999987  1.0000
  C   C82       1.0  0.8972699999999999  0.56575  0.4244499999999999  1.0000
  C   C83       1.0  0.39811  0.9338299999999999  0.42366  1.0000
  C   C84       1.0  0.6173600000000001  0.06495  0.5117299999999998  1.0000
  C   C85       1.0  0.6312999999999999  0.9365899999999999  0.4777999999999999  1.0000
  C   C86       1.0  0.39727000000000007  0.06575  0.4244299999999999  1.0000
  C   C87       1.0  0.84322  0.4348  0.4403999999999999  1.0000
  C   C88       1.0  0.16227000000000003  0.56396  0.5301599999999997  1.0000
  C   C89       1.0  0.17021999999999995  0.43656  0.50953  1.0000
  C   C90       1.0  0.42684  0.12991  0.4126  1.0000
  C   C91       1.0  0.84287  0.56493  0.4404499999999999  1.0000
  C   C92       1.0  0.3432199999999999  0.9348  0.4403799999999999  1.0000
  C   C93       1.0  0.6622700000000001  0.06396  0.53013  1.0000
  C   C94       1.0  0.67022  0.93656  0.5094999999999998  1.0000
  C   C95       1.0  0.34287  0.06494  0.4404399999999999  1.0000
  C   C96       1.0  0.8176100000000001  0.49993999999999994  0.4458299999999999  1.0000
  C   C97       1.0  0.18483999999999998  0.49951  0.53475  1.0000
  C   C98       1.0  0.3176099999999999  0.9999399999999999  0.4458099999999999  1.0000
  C   C99       1.0  0.6848500000000002  0.9995100000000001  0.5347099999999998  1.0000
  C   C100      1.0  0.61762  0.32309  0.19321  1.0000
  C   C101      1.0  0.4295699999999999  0.87019  0.40764  1.0000
  C   C102      1.0  0.57784  0.37694  0.23452999999999996  1.0000
  C   C103      1.0  0.55471  0.38898  0.3268899999999999  1.0000
  C   C104      1.0  0.57477  0.35252  0.37688  1.0000
  C   C105      1.0  0.6121599999999998  0.2969  0.3375099999999999  1.0000
  C   C106      1.0  0.6290599999999997  0.27768  0.24871999999999994  1.0000
  C   C107      1.0  0.38758999999999993  0.68775  0.8027599999999998  1.0000
  C   C108      1.0  0.38991000000000003  0.7486  0.7512899999999998  1.0000
  C   C109      1.0  0.41901999999999995  0.74635  0.65746  1.0000
  C   C110      1.0  0.44636000000000003  0.68368  0.6142699999999998  1.0000
  C   C111      1.0  0.44482000000000005  0.6232  0.6647899999999998  1.0000
  C   C112      1.0  0.29937  0.7346299999999998  0.32244  1.0000
  C   C113      1.0  0.58732  0.12771  0.51651  1.0000
  C   C114      1.0  0.41573999999999983  0.62515  0.7586499999999998  1.0000
  C   C115      1.0  0.39940999999999993  0.30641  0.8070599999999998  1.0000
  C   C116      1.0  0.41479000000000005  0.37485  0.76738  1.0000
  C   C117      1.0  0.44234  0.38154  0.6740699999999997  1.0000
  C   C118      1.0  0.45455  0.32018  0.6209699999999998  1.0000
  C   C119      1.0  0.4417499999999999  0.25191  0.6612199999999998  1.0000
  C   C120      1.0  0.41529999999999995  0.24489  0.7539  1.0000
  C   C121      1.0  0.63664  0.62065  0.17257  1.0000
  C   C122      1.0  0.60107  0.65806  0.25035  1.0000
  C   C123      1.0  0.5801499999999998  0.62406  0.3343699999999999  1.0000
  C   C124      1.0  0.7192900000000002  0.26377  0.9560199999999998  1.0000
  C   C125      1.0  0.59727  0.55495  0.34125  1.0000
  C   C126      1.0  0.6319099999999999  0.51753  0.26362999999999986  1.0000
  C   C127      1.0  0.6477399999999998  0.54784  0.17927  1.0000
  C   C128      1.0  0.11765000000000003  0.82291  0.19313999999999995  1.0000
  C   C129      1.0  0.07788999999999999  0.87678  0.2345  1.0000
  C   C130      1.0  0.054809999999999984  0.88882  0.32686  1.0000
  C   C131      1.0  0.07488999999999998  0.85234  0.3768  1.0000
  C   C132      1.0  0.11223999999999999  0.79668  0.33739  1.0000
  C   C133      1.0  0.1291  0.77746  0.24861999999999998  1.0000
  C   C134      1.0  0.8872299999999997  0.18717  0.8030099999999998  1.0000
  C   C135      1.0  0.2862  0.74487  0.037569999999999985  1.0000
  C   C136      1.0  0.8895199999999999  0.24782999999999997  0.7512599999999998  1.0000
  C   C137      1.0  0.91831  0.24516  0.6574299999999997  1.0000
  C   C138      1.0  0.94539  0.18228  0.6145  1.0000
  C   C139      1.0  0.9438999999999999  0.12201000000000001  0.66528  1.0000
  C   C140      1.0  0.9151199999999999  0.12436  0.7591499999999998  1.0000
  C   C141      1.0  0.8994399999999999  0.80635  0.8070499999999998  1.0000
  C   C142      1.0  0.9148300000000001  0.87477  0.7673499999999998  1.0000
  C   C143      1.0  0.9423899999999998  0.88145  0.6740299999999998  1.0000
  C   C144      1.0  0.95457  0.82009  0.62095  1.0000
  C   C145      1.0  0.9417599999999998  0.75182  0.6612199999999998  1.0000
  C   C146      1.0  0.2927599999999999  0.24413999999999997  0.03730999999999999  1.0000
  C   C147      1.0  0.9153199999999998  0.74482  0.7539  1.0000
  C   C148      1.0  0.1366  0.1207  0.17259  1.0000
  C   C149      1.0  0.10103000000000002  0.15809  0.25037999999999994  1.0000
  C   C150      1.0  0.08010000000000003  0.12406  0.3343899999999999  1.0000
  C   C151      1.0  0.09721000000000005  0.05494999999999999  0.3412399999999999  1.0000
  C   C152      1.0  0.13186999999999996  0.01755  0.26359999999999995  1.0000
  C   C153      1.0  0.1477  0.04788  0.17925  1.0000
  C   C154      1.0  0.7386400000000001  0.12741  0.7437799999999998  1.0000
  C   C155      1.0  0.2668699999999999  0.87671  0.25379  1.0000
  C   C156      1.0  0.27613999999999994  0.11955000000000002  0.25861  1.0000
  C   C157      1.0  0.7314599999999999  0.71188  0.9487499999999998  1.0000
  C   C158      1.0  0.8169399999999998  0.71132  0.6764799999999999  1.0000
  C   C159      1.0  0.23796000000000003  0.62653  0.7450799999999999  1.0000
  C   C160      1.0  0.7669399999999997  0.3768  0.25386999999999993  1.0000
  C   C161      1.0  0.77615  0.61955  0.25863  1.0000
  C   C162      1.0  0.31693  0.21134  0.6765099999999997  1.0000
  C   C163      1.0  0.21929  0.76365  0.95587  1.0000
  C   C164      1.0  0.78616  0.2449  0.03778999999999998  1.0000
  C   C165      1.0  0.79279  0.74411  0.03729  1.0000
  C   C166      1.0  0.23143  0.21192999999999998  0.94878  1.0000
  C   C167      1.0  0.7670000000000001  0.22223  0.913  1.0000
  C   C168      1.0  0.2996299999999999  0.26526  0.3234599999999999  1.0000
  C   C169      1.0  0.23976999999999998  0.78863  0.07876999999999998  1.0000
  C   C170      1.0  0.24804000000000007  0.19701  0.07816999999999998  1.0000
  C   C171      1.0  0.7804200000000001  0.75153  0.9034099999999998  1.0000
  C   C172      1.0  0.26713  0.7223299999999999  0.91257  1.0000
  C   C173      1.0  0.73975  0.28873  0.07895  1.0000
  C   C174      1.0  0.74808  0.69696  0.07815  1.0000
  C   C175      1.0  0.28039  0.25158  0.9034299999999997  1.0000
  C   C176      1.0  0.8028  0.217  0.9507299999999997  1.0000
  C   C177      1.0  0.20264  0.79196  0.04307999999999999  1.0000
  C   C178      1.0  0.21376999999999993  0.18587  0.0377  1.0000
  C   C179      1.0  0.70592  0.72354  0.6737599999999998  1.0000
  C   C180      1.0  0.8120599999999998  0.76732  0.9471399999999999  1.0000
  C   C181      1.0  0.30293000000000003  0.71712  0.9503799999999998  1.0000
  C   C182      1.0  0.70264  0.29212  0.04322  1.0000
  C   C183      1.0  0.7137999999999999  0.68581  0.037679999999999984  1.0000
  C   C184      1.0  0.31203000000000003  0.26737  0.9471699999999997  1.0000
  C   C185      1.0  0.63987  0.31662  0.9540699999999998  1.0000
  C   C186      1.0  0.3628599999999999  0.68611  0.04287999999999999  1.0000
  C   C187      1.0  0.36572  0.30997  0.04584999999999999  1.0000
  C   C188      1.0  0.6481800000000001  0.66817  0.9497299999999997  1.0000
  C   C189      1.0  0.1398299999999999  0.81656  0.95406  1.0000
  C   C190      1.0  0.20092000000000004  0.76593  0.6771899999999997  1.0000
  C   C191      1.0  0.86285  0.18614  0.04296  1.0000
  C   C192      1.0  0.8657299999999998  0.80995  0.04584999999999999  1.0000
  C   C193      1.0  0.14815000000000006  0.16821  0.9497499999999998  1.0000
  C   C194      1.0  0.6143999999999998  0.34154  0.9032799999999997  1.0000
  C   C195      1.0  0.38656  0.65925  0.09556999999999997  1.0000
  C   C196      1.0  0.38745  0.34048  0.09838999999999998  1.0000
  C   C197      1.0  0.61934  0.6506  0.9011199999999998  1.0000
  C   C198      1.0  0.11437000000000007  0.84153  0.9032799999999997  1.0000
  C   C199      1.0  0.8865799999999998  0.15928  0.09560999999999997  1.0000
  C   C200      1.0  0.88745  0.84048  0.09838999999999998  1.0000
  C   C201      1.0  0.79938  0.23466  0.3224499999999999  1.0000
  C   C202      1.0  0.11933000000000006  0.15062  0.9011299999999998  1.0000
  C   C203      1.0  0.6333199999999998  0.31922  0.8157699999999998  1.0000
  C   C204      1.0  0.36681999999999987  0.68072  0.18371999999999994  1.0000
  C   C205      1.0  0.367  0.32096  0.18716999999999995  1.0000
  C   C206      1.0  0.63913  0.67116  0.8130299999999998  1.0000
  C   C207      1.0  0.13330000000000009  0.81929  0.8157399999999998  1.0000
  C   C208      1.0  0.86686  0.18077  0.18373999999999993  1.0000
  C   C209      1.0  0.867  0.82097  0.18716999999999995  1.0000
  C   C210      1.0  0.13912000000000005  0.17117  0.8130299999999998  1.0000
  C   C211      1.0  0.67706  0.27307  0.7756099999999998  1.0000
  C   C212      1.0  0.7996299999999998  0.76526  0.3234599999999999  1.0000
  C   C213      1.0  0.32407  0.72848  0.22313999999999995  1.0000
  C   C214      1.0  0.32582999999999995  0.27114  0.22555999999999995  1.0000
  C   C215      1.0  0.68958  0.70128  0.7664899999999998  1.0000
  C   C216      1.0  0.17697000000000002  0.77305  0.7756199999999999  1.0000
  C   C217      1.0  0.82412  0.22854999999999998  0.22317  1.0000
  C   C218      1.0  0.82583  0.77114  0.22555999999999995  1.0000
  C   C219      1.0  0.18957000000000004  0.20129  0.7664899999999998  1.0000
  C   C220      1.0  0.70241  0.24576  0.8266499999999998  1.0000
  C   C221      1.0  0.30112  0.75899  0.16972999999999994  1.0000
  C   C222      1.0  0.30512  0.23758  0.1723  1.0000
  C   C223      1.0  0.20591999999999994  0.22354  0.6737599999999998  1.0000
  C   C224      1.0  0.7223900000000001  0.71132  0.8099799999999998  1.0000
  C   C225      1.0  0.20218000000000005  0.74553  0.8267599999999998  1.0000
  C   C226      1.0  0.80116  0.25908  0.1698  1.0000
  C   C227      1.0  0.80513  0.73756  0.17229  1.0000
  C   C228      1.0  0.22237000000000004  0.21134  0.80999  1.0000
  C   C229      1.0  0.6924899999999999  0.1285  0.52876  1.0000
  C   C230      1.0  0.30872  0.8705900000000001  0.4646099999999999  1.0000
  C   C231      1.0  0.30853  0.12938  0.46509  1.0000
  C   C232      1.0  0.69644  0.87178  0.51701  1.0000
  C   C233      1.0  0.19249  0.6285  0.52876  1.0000
  C   C234      1.0  0.9226599999999998  0.49987000000000004  0.4236899999999999  1.0000
  C   C235      1.0  0.8087199999999998  0.37059  0.46461999999999987  1.0000
  C   C236      1.0  0.8085299999999997  0.62938  0.46509  1.0000
  C   C237      1.0  0.19644  0.37178  0.5170199999999999  1.0000
  C   C238      1.0  0.68756  0.27599  0.9118  1.0000
  C   C239      1.0  0.3165  0.72961  0.08371999999999997  1.0000
  C   C240      1.0  0.32044  0.26499  0.08579999999999997  1.0000
  C   C241      1.0  0.7002599999999998  0.69789  0.90329  1.0000
  C   C242      1.0  0.1874800000000001  0.77587  0.9117799999999998  1.0000
  C   C243      1.0  0.8165  0.22966999999999999  0.08383999999999997  1.0000
  C   C244      1.0  0.82045  0.76497  0.08579  1.0000
  H   H1        1.0  0.08027000000000002  0.26158  0.39589999999999986  1.0000
  H   H2        1.0  0.21633000000000005  0.49889  0.5543899999999998  1.0000
  H   H3        1.0  0.27568  2.000000000000056e-05  0.46034999999999987  1.0000
  H   H4        1.0  0.71634  0.99889  0.55434  1.0000
  H   H5        1.0  0.14509999999999998  0.32875  0.41773  1.0000
  H   H6        1.0  0.91507  0.68035  0.3953399999999999  1.0000
  H   H7        1.0  0.9169  0.31984  0.3925299999999999  1.0000
  H   H8        1.0  0.08935999999999994  0.67616  0.54908  1.0000
  H   H9        1.0  0.6451099999999999  0.82876  0.41771  1.0000
  H   H10       1.0  0.41506  0.18036  0.39533  1.0000
  H   H11       1.0  0.41691  0.81985  0.3924799999999999  1.0000
  H   H12       1.0  0.97616  0.7462  0.4321299999999999  1.0000
  H   H13       1.0  0.58936  0.17617  0.5490599999999998  1.0000
  H   H14       1.0  0.61504  0.34077  0.7769399999999997  1.0000
  H   H15       1.0  0.3837000000000001  0.65721  0.22365999999999994  1.0000
  H   H16       1.0  0.38207  0.34712  0.22778999999999994  1.0000
  H   H17       1.0  0.61555  0.66082  0.7790099999999998  1.0000
  H   H18       1.0  0.11508000000000006  0.84096  0.7768599999999998  1.0000
  H   H19       1.0  0.88375  0.15726  0.22366999999999995  1.0000
  H   H20       1.0  0.8820599999999997  0.84714  0.22779999999999995  1.0000
  H   H21       1.0  0.11555000000000003  0.16082  0.7790099999999998  1.0000
  H   H22       1.0  0.57481  0.3376  0.08639999999999998  1.0000
  H   H23       1.0  0.9960699999999998  0.25737  0.38395  1.0000
  H   H24       1.0  0.42732999999999993  0.65953  0.9097299999999999  1.0000
  H   H25       1.0  0.43240999999999985  0.33421  0.9157599999999998  1.0000
  H   H26       1.0  0.58546  0.64398  0.08589999999999998  1.0000
  H   H27       1.0  0.0748  0.83756  0.08639999999999998  1.0000
  H   H28       1.0  0.9272299999999996  0.15941  0.9097599999999998  1.0000
  H   H29       1.0  0.9324199999999999  0.83419  0.91575  1.0000
  H   H30       1.0  0.08542999999999998  0.14403  0.08591  1.0000
  H   H31       1.0  0.8002299999999998  0.13346  0.82146  1.0000
  H   H32       1.0  0.20916  0.87938  0.16754999999999995  1.0000
  H   H33       1.0  0.22485999999999998  0.10667  0.16882  1.0000
  H   H34       1.0  0.040700000000000035  0.74279  0.4917899999999999  1.0000
  H   H35       1.0  0.8257999999999999  0.81273  0.7788199999999997  1.0000
  H   H36       1.0  0.3011499999999999  0.63447  0.81936  1.0000
  H   H37       1.0  0.70918  0.37949  0.16770999999999994  1.0000
  H   H38       1.0  0.7249099999999999  0.60662  0.16878  1.0000
  H   H39       1.0  0.32577  0.31278  0.7788399999999998  1.0000
  H   H40       1.0  0.56648  0.4124  0.19542999999999996  1.0000
  H   H41       1.0  0.52479  0.43099  0.3578699999999999  1.0000
  H   H42       1.0  0.56112  0.36703  0.4461299999999999  1.0000
  H   H43       1.0  0.62752  0.26772  0.3760799999999999  1.0000
  H   H44       1.0  0.65556  0.23169000000000003  0.22138999999999995  1.0000
  H   H45       1.0  0.58031  0.76161  0.39576  1.0000
  H   H46       1.0  0.3691400000000001  0.79768  0.7838599999999998  1.0000
  H   H47       1.0  0.42045999999999983  0.79324  0.6182  1.0000
  H   H48       1.0  0.4688000000000001  0.68202  0.5416799999999998  1.0000
  H   H49       1.0  0.46614999999999995  0.57477  0.63118  1.0000
  H   H50       1.0  0.41464999999999996  0.57773  0.7969  1.0000
  H   H51       1.0  0.4032900000000001  0.42272  0.8085199999999998  1.0000
  H   H52       1.0  0.4525300000000001  0.43419  0.6429999999999998  1.0000
  H   H53       1.0  0.4724  0.32615  0.54908  1.0000
  H   H54       1.0  0.4485999999999999  0.20386  0.6224  1.0000
  H   H55       1.0  0.40387000000000006  0.192  0.7841599999999997  1.0000
  H   H56       1.0  0.47614  0.24620999999999998  0.43214999999999987  1.0000
  H   H57       1.0  0.58964  0.71289  0.24559999999999996  1.0000
  H   H58       1.0  0.55129  0.65106  0.39462999999999987  1.0000
  H   H59       1.0  0.5832200000000001  0.53009  0.4065599999999999  1.0000
  H   H60       1.0  0.64635  0.46484  0.26876  1.0000
  H   H61       1.0  0.6736899999999999  0.51744  0.11952999999999997  1.0000
  H   H62       1.0  0.06652  0.9122700000000001  0.19543999999999995  1.0000
  H   H63       1.0  0.024910000000000033  0.93085  0.3578699999999999  1.0000
  H   H64       1.0  0.06128000000000001  0.86684  0.44604  1.0000
  H   H65       1.0  0.12762  0.76747  0.3759299999999999  1.0000
  H   H66       1.0  0.15558999999999998  0.73147  0.22124999999999995  1.0000
  H   H67       1.0  0.49612  0.7574  0.38378  1.0000
  H   H68       1.0  0.8689400000000003  0.29706  0.7836299999999998  1.0000
  H   H69       1.0  0.9196999999999997  0.29189  0.6179599999999997  1.0000
  H   H70       1.0  0.9675900000000001  0.1803  0.5418999999999998  1.0000
  H   H71       1.0  0.9650400000000001  0.07342  0.63186  1.0000
  H   H72       1.0  0.91405  0.07707  0.7975999999999998  1.0000
  H   H73       1.0  0.90334  0.9226499999999999  0.8084699999999998  1.0000
  H   H74       1.0  0.9525799999999999  0.93409  0.64295  1.0000
  H   H75       1.0  0.97242  0.82606  0.5490599999999998  1.0000
  H   H76       1.0  0.94859  0.70377  0.62241  1.0000
  H   H77       1.0  0.90387  0.69193  0.7841699999999999  1.0000
  H   H78       1.0  0.5406799999999999  0.24281  0.4917899999999999  1.0000
  H   H79       1.0  0.08959000000000003  0.21292  0.24564999999999995  1.0000
  H   H80       1.0  0.05123000000000002  0.15104  0.3946599999999999  1.0000
  H   H81       1.0  0.08315999999999998  0.03006  0.40653999999999996  1.0000
  H   H82       1.0  0.14632000000000003  0.9648499999999999  0.2687099999999999  1.0000
  H   H83       1.0  0.17367  0.0175  0.11951  1.0000
  H   H84       1.0  0.82015  0.11600999999999999  0.6740699999999997  1.0000
  H   H85       1.0  0.31126  0.93415  0.2952599999999999  1.0000
  H   H86       1.0  0.23780000000000007  0.0428  0.3520199999999999  1.0000
  H   H87       1.0  0.88116  0.73556  0.5572299999999998  1.0000
  H   H88       1.0  0.27776  0.54461  0.66171  1.0000
  H   H89       1.0  0.7756799999999999  0.50002  0.4603699999999999  1.0000
  H   H90       1.0  0.81137  0.43424000000000007  0.2952599999999999  1.0000
  H   H91       1.0  0.7377899999999997  0.54285  0.35210999999999987  1.0000
  H   H92       1.0  0.38115999999999994  0.23557  0.55725  1.0000
  O   O1        1.0  0.7464899999999999  0.23633  0.63808  1.0000
  O   O2        1.0  0.3258299999999999  0.81384  0.48372999999999994  1.0000
  O   O3        1.0  0.3258299999999999  0.18616  0.48372999999999994  1.0000
  O   O4        1.0  0.6741699999999999  0.81384  0.51627  1.0000
  O   O5        1.0  0.1741699999999999  0.68616  0.51627  1.0000
  O   O6        1.0  0.82583  0.31384  0.48372999999999994  1.0000
  O   O7        1.0  0.82583  0.68616  0.48372999999999994  1.0000
  O   O8        1.0  0.1741699999999999  0.31384  0.51627  1.0000
  O   O9        1.0  0.73996  0.12762  0.525  1.0000
  O   O10       1.0  0.26004  0.8723799999999999  0.47499999999999987  1.0000
  O   O11       1.0  0.26003999999999994  0.12762  0.47499999999999987  1.0000
  O   O12       1.0  0.25351  0.76367  0.3619199999999999  1.0000
  O   O13       1.0  0.73996  0.8723799999999999  0.525  1.0000
  O   O14       1.0  0.23996  0.62762  0.525  1.0000
  O   O15       1.0  0.7600399999999998  0.37238  0.47499999999999987  1.0000
  O   O16       1.0  0.7600399999999998  0.62762  0.47499999999999987  1.0000
  O   O17       1.0  0.23996  0.37238  0.525  1.0000
  O   O18       1.0  0.6806999999999997  0.29487  0.6293499999999997  1.0000
  O   O19       1.0  0.3193  0.70513  0.3706499999999999  1.0000
  O   O20       1.0  0.3193  0.29487  0.3706499999999999  1.0000
  O   O21       1.0  0.6806999999999997  0.70513  0.6293499999999997  1.0000
  O   O22       1.0  0.18070000000000006  0.79487  0.6293499999999997  1.0000
  O   O23       1.0  0.25351  0.23633  0.3619199999999999  1.0000
  O   O24       1.0  0.8192999999999998  0.20513  0.3706499999999999  1.0000
  O   O25       1.0  0.8192999999999998  0.79487  0.3706499999999999  1.0000
  O   O26       1.0  0.18070000000000006  0.20513  0.6293499999999997  1.0000
  O   O27       1.0  0.06202  0.07284  0.007169999999999999  1.0000
  O   O28       1.0  0.9379800000000001  0.92716  0.9928299999999998  1.0000
  O   O29       1.0  0.93798  0.07284  0.9928299999999998  1.0000
  O   O30       1.0  0.06202  0.92716  0.007169999999999999  1.0000
  O   O31       1.0  0.56202  0.57284  0.007169999999999999  1.0000
  O   O32       1.0  0.4379799999999999  0.42716  0.9928299999999998  1.0000
  O   O33       1.0  0.4379799999999999  0.57284  0.9928299999999998  1.0000
  O   O34       1.0  0.7464899999999999  0.76367  0.63808  1.0000
  O   O35       1.0  0.56202  0.42716  0.007169999999999999  1.0000
  O   O36       1.0  0.94786  0.07395  0.10928999999999997  1.0000
  O   O37       1.0  0.052139999999999964  0.92605  0.89071  1.0000
  O   O38       1.0  0.052139999999999985  0.07395  0.89071  1.0000
  O   O39       1.0  0.94786  0.92605  0.10928999999999997  1.0000
  O   O40       1.0  0.44785999999999987  0.57395  0.10928999999999997  1.0000
  O   O41       1.0  0.5521399999999997  0.42605  0.89071  1.0000
  O   O42       1.0  0.5521399999999997  0.57395  0.89071  1.0000
  O   O43       1.0  0.44785999999999987  0.42605  0.10928999999999997  1.0000
  O   O44       1.0  0.69526  0.10786  0.75145  1.0000
  O   O45       1.0  0.24649  0.73633  0.63808  1.0000
  O   O46       1.0  0.78582  0.09198  0.68242  1.0000
  O   O47       1.0  0.22599  0.91154  0.30013999999999996  1.0000
  O   O48       1.0  0.3150599999999999  0.89198  0.25515  1.0000
  O   O49       1.0  0.31840000000000007  0.11037999999999999  0.26137  1.0000
  O   O50       1.0  0.2309799999999999  0.07724  0.31191  1.0000
  O   O51       1.0  0.8172100000000001  0.64829  0.6562799999999998  1.0000
  O   O52       1.0  0.85475  0.75943  0.61537  1.0000
  O   O53       1.0  0.19591  0.61229  0.74388  1.0000
  O   O54       1.0  0.2841100000000001  0.58439  0.6961899999999998  1.0000
  O   O55       1.0  0.72607  0.41164  0.30025  1.0000
  O   O56       1.0  0.7535100000000001  0.26367  0.3619199999999999  1.0000
  O   O57       1.0  0.8151499999999998  0.39206  0.2551799999999999  1.0000
  O   O58       1.0  0.8184199999999998  0.61037  0.26138  1.0000
  O   O59       1.0  0.73098  0.57727  0.3119699999999999  1.0000
  O   O60       1.0  0.31720000000000004  0.14831  0.6563199999999998  1.0000
  O   O61       1.0  0.3547400000000001  0.25944  0.6153899999999998  1.0000
  O   O62       1.0  0.7535100000000002  0.73633  0.3619199999999999  1.0000
  O   O63       1.0  0.24649  0.26367  0.63808  1.0000
  O   O64       1.0  0.67417  0.18616  0.51627  1.0000
  Zn  Zn1       1.0  0.79234  0.20875  0.5076699999999997  1.0000
  Zn  Zn2       1.0  0.49404  0.5  0.91948  1.0000
  Zn  Zn3       1.0  0.005960000000000006  9.321233663144472e-20  0.08051999999999997  1.0000
  Zn  Zn4       1.0  0.99404  0.0  0.91948  1.0000
  Zn  Zn5       1.0  0.20765999999999996  0.79125  0.4923299999999999  1.0000
  Zn  Zn6       1.0  0.20765999999999996  0.20875  0.4923299999999999  1.0000
  Zn  Zn7       1.0  0.79234  0.79125  0.5076699999999997  1.0000
  Zn  Zn8       1.0  0.29233999999999993  0.70875  0.5076699999999997  1.0000
  Zn  Zn9       1.0  0.70766  0.29125  0.4923299999999999  1.0000
  Zn  Zn10      1.0  0.70766  0.70875  0.4923299999999999  1.0000
  Zn  Zn11      1.0  0.29234  0.29125  0.5076699999999997  1.0000
  Zn  Zn12      1.0  0.50596  0.5  0.08051999999999997  1.0000
