data_image0
_chemical_formula_structural       Ba2C64H54O36P8
_chemical_formula_sum              "Ba2 C64 H54 O36 P8"
_cell_length_a       8.33649
_cell_length_b       13.03935
_cell_length_c       18.81662
_cell_angle_alpha    100.41021
_cell_angle_beta     90.73432
_cell_angle_gamma    99.19967

_space_group_name_H-M_alt    "P 1"
_space_group_IT_number       1

loop_
  _space_group_symop_operation_xyz
  'x, y, z'

loop_
  _atom_site_type_symbol
  _atom_site_label
  _atom_site_symmetry_multiplicity
  _atom_site_fract_x
  _atom_site_fract_y
  _atom_site_fract_z
  _atom_site_occupancy
  Ba  Ba1       1.0  0.8527799999999999  0.5483399999999999  0.46507  1.0000
  Ba  Ba2       1.0  0.33706  0.45174999999999993  0.53494  1.0000
  C   C1        1.0  0.71817  0.85502  0.18235  1.0000
  C   C2        1.0  0.89918  0.40165  0.09521000000000002  1.0000
  C   C3        1.0  0.80297  0.36850000000000005  0.9404300000000001  1.0000
  C   C4        1.0  0.16842999999999989  0.7592199999999998  0.26639  1.0000
  C   C5        1.0  0.95052  0.43155999999999994  0.9704600000000001  1.0000
  C   C6        1.0  0.72324  0.39898999999999996  0.8833  1.0000
  C   C7        1.0  0.8176399999999998  0.45125  0.83399  1.0000
  C   C8        1.0  0.9824600000000001  0.49583999999999995  0.8549  1.0000
  C   C9        1.0  0.045029999999999966  0.4918799999999999  0.92559  1.0000
  C   C10       1.0  0.75633  0.45841999999999994  0.76411  1.0000
  C   C11       1.0  0.86117  0.50432  0.7167100000000001  1.0000
  C   C12       1.0  0.64983  0.7872499999999999  0.23653000000000002  1.0000
  C   C13       1.0  0.024600000000000052  0.54525  0.73453  1.0000
  C   C14       1.0  0.08209000000000002  0.5489100000000001  0.8070700000000001  1.0000
  C   C15       1.0  0.16270999999999997  0.4890299999999999  0.0682  1.0000
  C   C16       1.0  0.17438  0.78789  0.19153  1.0000
  C   C17       1.0  0.21718  0.49335  0.14168  1.0000
  C   C18       1.0  0.11062999999999999  0.45060999999999996  0.19174  1.0000
  C   C19       1.0  0.9532199999999997  0.40466  0.16585  1.0000
  C   C20       1.0  0.23257  0.60791  0.8347900000000001  1.0000
  C   C21       1.0  0.29067999999999994  0.6073299999999999  0.90473  1.0000
  C   C22       1.0  0.203  0.54539  0.9502  1.0000
  C   C23       1.0  0.40242  0.24439  0.31221  1.0000
  C   C24       1.0  0.26601  0.53756  0.01998  1.0000
  C   C25       1.0  0.42977999999999994  0.57507  0.04315000000000001  1.0000
  C   C26       1.0  0.37835  0.53995  0.16469  1.0000
  C   C27       1.0  0.48530999999999996  0.57329  0.11308000000000001  1.0000
  C   C28       1.0  0.2936  0.79498  0.64982  1.0000
  C   C29       1.0  0.42634999999999995  0.55374  0.23876  1.0000
  C   C30       1.0  0.31477  0.52007  0.28855  1.0000
  C   C31       1.0  0.16233  0.46045  0.26633  1.0000
  C   C32       1.0  0.75736  0.17968  0.52875  1.0000
  C   C33       1.0  0.43466000000000005  0.80578  0.46914000000000006  1.0000
  C   C34       1.0  0.30939  0.17108  0.24603  1.0000
  C   C35       1.0  0.41023000000000004  0.97371  0.43731999999999993  1.0000
  C   C36       1.0  0.34454  0.86936  0.43857  1.0000
  C   C37       1.0  0.57941  0.84849  0.50962  1.0000
  C   C38       1.0  0.63962  0.9604  0.51684  1.0000
  C   C39       1.0  0.55358  0.024519999999999997  0.47958  1.0000
  C   C40       1.0  0.3823  0.8971599999999997  0.69579  1.0000
  C   C41       1.0  0.61386  0.13613000000000003  0.48695000000000005  1.0000
  C   C42       1.0  0.84897  0.11683  0.56  1.0000
  C   C43       1.0  0.78705  0.008859999999999993  0.55643  1.0000
  C   C44       1.0  0.86723  0.20322  0.29192  1.0000
  C   C45       1.0  0.07325999999999999  0.24135999999999996  0.73404  1.0000
  C   C46       1.0  0.84542  0.09291  0.31078  1.0000
  C   C47       1.0  0.76157  0.7210399999999999  0.68136  1.0000
  C   C48       1.0  0.8146099999999997  0.76729  0.76113  1.0000
  C   C49       1.0  0.64485  0.8532799999999998  0.30955000000000005  1.0000
  C   C50       1.0  0.8440799999999999  0.18834  0.21114000000000005  1.0000
  C   C51       1.0  0.89728  0.09129  0.38655  1.0000
  C   C52       1.0  0.88297  0.88379  0.7716000000000001  1.0000
  C   C53       1.0  0.67728  0.74473  0.81026  1.0000
  C   C54       1.0  0.5028699999999998  0.33669  0.29032  1.0000
  C   C55       1.0  0.41723  0.11362  0.19559  1.0000
  C   C56       1.0  0.09588  0.21803999999999998  0.80953  1.0000
  C   C57       1.0  0.55033  0.41048999999999997  0.89238  1.0000
  C   C58       1.0  0.75233  0.26096  0.95776  1.0000
  C   C59       1.0  0.33744  0.016430000000000007  0.38042  1.0000
  C   C60       1.0  0.82566  0.29077  0.53087  1.0000
  C   C61       1.0  0.20069999999999993  0.8200999999999998  0.58978  1.0000
  C   C62       1.0  0.5713  0.19495  0.70656  1.0000
  C   C63       1.0  0.63683  0.12958999999999998  0.75579  1.0000
  C   C64       1.0  0.003989999999999995  0.43821  0.04387  1.0000
  H   H1        1.0  0.45144  0.87961  0.7414500000000003  1.0000
  H   H2        1.0  0.52371  0.7521200000000001  0.21683000000000002  1.0000
  H   H3        1.0  0.6472199999999998  0.9198  0.18085000000000004  1.0000
  H   H4        1.0  0.21726  0.11132999999999998  0.26435  1.0000
  H   H5        1.0  0.71069  0.80545  0.12742  1.0000
  H   H6        1.0  0.23750999999999994  0.8705  0.19492000000000007  1.0000
  H   H7        1.0  0.16041999999999998  0.3133099999999999  0.72928  1.0000
  H   H8        1.0  0.94727  0.25660000000000005  0.7269700000000001  1.0000
  H   H9        1.0  0.22120999999999996  0.20259999999999997  0.818  1.0000
  H   H10       1.0  0.07558  0.28649  0.85065  1.0000
  H   H11       1.0  0.007980000000000004  0.14758000000000004  0.8166400000000001  1.0000
  H   H12       1.0  0.46887  0.93953  0.6623100000000001  1.0000
  H   H13       1.0  0.67598  0.22952999999999996  0.67764  1.0000
  H   H14       1.0  0.48400999999999994  0.14211  0.6655  1.0000
  H   H15       1.0  0.72637  0.18151999999999996  0.79601  1.0000
  H   H16       1.0  0.6984999999999999  0.06853999999999998  0.72342  1.0000
  H   H17       1.0  0.53631  0.09088000000000003  0.78482  1.0000
  H   H18       1.0  0.81292  0.51128  0.66482  1.0000
  H   H19       1.0  0.86521  0.37484  0.20052000000000006  1.0000
  H   H20       1.0  0.30636  0.65714  0.80325  1.0000
  H   H21       1.0  0.61288  0.60126  0.12633  1.0000
  H   H22       1.0  0.35217  0.53344  0.34517  1.0000
  H   H23       1.0  0.2947599999999999  0.9493999999999998  0.71808  1.0000
  H   H24       1.0  0.77118  0.37337999999999993  0.08245000000000001  1.0000
  H   H25       1.0  0.40529  0.65728  0.9224  1.0000
  H   H26       1.0  0.29533  0.75968  0.28549  1.0000
  H   H27       1.0  0.51915  0.6042099999999999  0.00748  1.0000
  H   H28       1.0  0.85844  0.9629099999999999  0.58247  1.0000
  H   H29       1.0  0.38653  0.72264  0.4646700000000001  1.0000
  H   H30       1.0  0.24142  0.7340499999999999  0.15536000000000005  1.0000
  H   H31       1.0  0.04936999999999997  0.7796499999999998  0.16795  1.0000
  H   H32       1.0  0.56367  0.90926  0.31733  1.0000
  H   H33       1.0  0.7334299999999998  0.20426  0.18779  1.0000
  H   H34       1.0  0.71522  0.05862999999999998  0.30192  1.0000
  H   H35       1.0  0.77368  0.24482000000000007  0.3189400000000001  1.0000
  H   H36       1.0  0.85666  0.022360000000000015  0.40958000000000006  1.0000
  H   H37       1.0  0.98385  0.9101600000000001  0.73982  1.0000
  H   H38       1.0  0.56556  0.77555  0.8050900000000001  1.0000
  H   H39       1.0  0.31048999999999993  0.27398  0.34878000000000003  1.0000
  H   H40       1.0  0.52998  0.33828  0.23422000000000004  1.0000
  H   H41       1.0  0.48758  0.06009  0.21449  1.0000
  H   H42       1.0  0.24311999999999998  0.21872999999999995  0.21613000000000002  1.0000
  H   H43       1.0  0.09721999999999995  0.6784899999999999  0.2621  1.0000
  H   H44       1.0  0.50777  0.4764  0.87546  1.0000
  H   H45       1.0  0.91801  0.042029999999999984  0.27539  1.0000
  H   H46       1.0  0.8291  0.23062  0.99323  1.0000
  H   H47       1.0  0.3886699999999999  0.011350000000000013  0.32786  1.0000
  H   H48       1.0  0.88045  0.31687  0.48391000000000006  1.0000
  H   H49       1.0  0.38446  0.74579  0.6281600000000002  1.0000
  H   H50       1.0  0.18115999999999996  0.89996  0.58772  1.0000
  H   H51       1.0  0.87119  0.7030399999999999  0.65224  1.0000
  H   H52       1.0  0.67247  0.6469399999999998  0.67767  1.0000
  H   H53       1.0  0.8475399999999997  0.8889599999999998  0.19641000000000006  1.0000
  H   H54       1.0  0.9151  0.7280699999999998  0.77629  1.0000
  O   O1        1.0  0.87309  0.4258899999999999  0.32514  1.0000
  O   O2        1.0  0.18596000000000001  0.12266  0.5497000000000001  1.0000
  O   O3        1.0  0.10360999999999997  0.15457999999999994  0.68302  1.0000
  O   O4        1.0  0.12242  0.43437  0.41438  1.0000
  O   O5        1.0  0.57837  0.6338  0.53638  1.0000
  O   O6        1.0  0.34151  0.23185  0.46551  1.0000
  O   O7        1.0  0.50612  0.19067999999999993  0.34565  1.0000
  O   O8        1.0  0.41517  0.45707  0.7530600000000001  1.0000
  O   O9        1.0  0.4888  0.26974999999999993  0.7481500000000001  1.0000
  O   O10       1.0  0.6595  0.6270999999999998  0.36881  1.0000
  O   O11       1.0  0.73667  0.51844  0.24654  1.0000
  O   O12       1.0  0.6897199999999999  0.7933899999999998  0.65043  1.0000
  O   O13       1.0  0.023720000000000015  0.25643  0.31582  1.0000
  O   O14       1.0  0.74868  0.71077  0.24006  1.0000
  O   O15       1.0  0.8482  0.76819  0.5345300000000001  1.0000
  O   O16       1.0  0.08116  0.68595  0.40481  1.0000
  O   O17       1.0  0.010020000000000022  0.8746700000000001  0.44769  1.0000
  O   O18       1.0  0.7282299999999999  0.84239  0.36044  1.0000
  O   O19       1.0  0.94556  0.15478999999999998  0.1711  1.0000
  O   O20       1.0  0.9919400000000002  0.16390999999999997  0.42203  1.0000
  O   O21       1.0  0.8275199999999999  0.9491099999999998  0.81509  1.0000
  O   O22       1.0  0.69094  0.69145  0.8564  1.0000
  O   O23       1.0  0.09319  0.83228  0.3131  1.0000
  O   O24       1.0  0.55941  0.41081  0.33732  1.0000
  O   O25       1.0  0.42486  0.12569999999999998  0.13281  1.0000
  O   O26       1.0  0.45694  0.35199  0.92259  1.0000
  O   O27       1.0  0.6296599999999998  0.20263000000000003  0.9301700000000002  1.0000
  O   O28       1.0  0.20878  0.04768999999999998  0.38905  1.0000
  O   O29       1.0  0.8193399999999998  0.35506  0.58542  1.0000
  O   O30       1.0  0.14113  0.74737  0.54268  1.0000
  O   O31       1.0  0.31661  0.57414  0.6749  1.0000
  O   O32       1.0  0.06728999999999997  0.56572  0.58563  1.0000
  O   O33       1.0  0.5302099999999998  0.37299  0.6312  1.0000
  O   O34       1.0  0.18248  0.74362  0.6918200000000001  1.0000
  O   O35       1.0  0.61134  0.36628999999999995  0.46363  1.0000
  O   O36       1.0  0.10854999999999997  0.31413999999999986  0.5952  1.0000
  P   P1        1.0  0.04104  0.39477  0.33633  1.0000
  P   P2        1.0  0.67288  0.75403  0.5561  1.0000
  P   P3        1.0  0.13328  0.81734  0.40186000000000005  1.0000
  P   P4        1.0  0.14867  0.60532  0.66368  1.0000
  P   P5        1.0  0.06069999999999999  0.17675  0.59634  1.0000
  P   P6        1.0  0.63802  0.60583  0.27393  1.0000
  P   P7        1.0  0.5206  0.23057999999999995  0.44036  1.0000
  P   P8        1.0  0.54997  0.39373  0.7250100000000003  1.0000
