data_image0
_chemical_formula_structural       C22H8N2O8Zn2CHOCHOCHOCHO
_chemical_formula_sum              "C26 H12 N2 O12 Zn2"
_cell_length_a       7.76196
_cell_length_b       8.423440000000001
_cell_length_c       14.86557
_cell_angle_alpha    90.78893
_cell_angle_beta     85.92803999999998
_cell_angle_gamma    93.72237999999999

_symmetry_space_group_name_H-M    'P 1'
_symmetry_Int_Tables_number       1

loop_
  _symmetry_equiv_pos_as_xyz
  'x,y,z'

loop_
  _atom_site_type_symbol
  _atom_site_label
  _atom_site_symmetry_multiplicity
  _atom_site_fract_x
  _atom_site_fract_y
  _atom_site_fract_z
  _atom_site_occupancy
  C   C1        1.0  0.5439899999999998  0.79325  0.48363  1.0000
  C   C2        1.0  0.4534  0.20595  0.48896  1.0000
  C   C3        1.0  0.6333  0.77537  0.95272  1.0000
  C   C4        1.0  0.3665799999999999  0.2244  0.04759  1.0000
  C   C5        1.0  0.56299  0.95289  0.44891  1.0000
  C   C6        1.0  0.42504  0.04356  0.45928  1.0000
  C   C7        1.0  0.50241  0.4999100000000001  0.67277  1.0000
  C   C8        1.0  0.4975599999999999  0.49994  0.32726  1.0000
  C   C9        1.0  0.43112  0.36423000000000005  0.18872999999999995  1.0000
  C   C10       1.0  0.56935  0.6354  0.81149  1.0000
  C   C11       1.0  0.4919199999999999  0.50113  0.23239  1.0000
  C   C12       1.0  0.50803  0.49870000000000003  0.76777  1.0000
  C   C13       1.0  0.5512799999999998  0.63792  0.18637999999999993  1.0000
  C   C14       1.0  0.44805  0.36212000000000016  0.81387  1.0000
  C   C15       1.0  0.5544900000000003  0.63827  0.09337  1.0000
  C   C16       1.0  0.44498  0.36168000000000006  0.9069  1.0000
  C   C17       1.0  0.4952799999999999  0.49988000000000005  0.047099999999999996  1.0000
  C   C18       1.0  0.5044299999999999  0.49997  0.9531499999999998  1.0000
  C   C19       1.0  0.4280699999999999  0.36157  0.09508  1.0000
  C   C20       1.0  0.5719499999999997  0.63816  0.9051799999999999  1.0000
  C   C21       1.0  0.62005  0.77408  0.04662  1.0000
  C   C22       1.0  0.3794  0.22585000000000005  0.95367  1.0000
  H   H1        1.0  0.39291  0.26036  0.22901999999999997  1.0000
  H   H2        1.0  0.6082099999999998  0.73913  0.7712299999999997  1.0000
  H   H3        1.0  0.5976  0.74254  0.22325  1.0000
  H   H4        1.0  0.4013  0.25764  0.77705  1.0000
  H   H5        1.0  0.66585  0.87857  0.08371  1.0000
  H   H6        1.0  0.33341000000000004  0.12142000000000001  0.9166  1.0000
  H   H7        1.0  0.013449999999999998  0.38166  0.43194  1.0000
  H   H8        1.0  0.98655  0.61843  0.568  1.0000
  N   N1        1.0  0.95033  0.45795  0.47566  1.0000
  N   N2        1.0  0.04967  0.54205  0.52434  1.0000
  O   O1        1.0  0.3892499999999999  0.73857  0.50597  1.0000
  O   O2        1.0  0.6107499999999998  0.26143  0.49403  1.0000
  O   O3        1.0  0.67839  0.71162  0.49037  1.0000
  O   O4        1.0  0.32161  0.28838  0.50963  1.0000
  O   O5        1.0  0.35541999999999996  0.5135100000000001  0.6399499999999999  1.0000
  O   O6        1.0  0.64458  0.4864899999999999  0.36005  1.0000
  O   O7        1.0  0.6445599999999998  0.48656000000000005  0.62435  1.0000
  O   O8        1.0  0.35543999999999987  0.51344  0.37565  1.0000
  Zn  Zn1       1.0  0.30693999999999994  0.51799  0.51042  1.0000
  Zn  Zn2       1.0  0.69306  0.48201  0.48958  1.0000
  C   C23       1.0  0.7153  0.92193  0.90931  1.0000
  H   H9        1.0  0.7022199999999997  0.03604  0.94314  1.0000
  O   O9        1.0  0.80721  0.91674  0.8393699999999997  1.0000
  C   C24       1.0  0.28486  0.07773  0.09105  1.0000
  H   H10       1.0  0.29743  0.96373  0.05705  1.0000
  O   O10       1.0  0.19379  0.08271  0.16129  1.0000
  C   C25       1.0  0.73084  0.00665  0.40025  1.0000
  H   H11       1.0  0.84464  0.94113  0.40709  1.0000
  O   O11       1.0  0.74057  0.11718000000000003  0.3473899999999999  1.0000
  C   C26       1.0  0.24505  0.98023  0.44339  1.0000
  H   H12       1.0  0.22497000000000003  0.8804300000000002  0.39745  1.0000
  O   O12       1.0  0.11885000000000001  0.03725  0.48174  1.0000
