data_image0
_chemical_formula_structural       Ba2C52H58O33P8S3
_chemical_formula_sum              "Ba2 C52 H58 O33 P8 S3"
_cell_length_a       8.2484
_cell_length_b       12.769609999999998
_cell_length_c       19.06354
_cell_angle_alpha    99.40479999999998
_cell_angle_beta     91.47993
_cell_angle_gamma    98.73645

_space_group_name_H-M_alt    "P 1"
_space_group_IT_number       1

loop_
  _space_group_symop_operation_xyz
  'x, y, z'

loop_
  _atom_site_type_symbol
  _atom_site_label
  _atom_site_symmetry_multiplicity
  _atom_site_fract_x
  _atom_site_fract_y
  _atom_site_fract_z
  _atom_site_occupancy
  Ba  Ba1       1.0  0.8531800000000003  0.54779  0.4653  1.0000
  Ba  Ba2       1.0  0.33665  0.4523  0.53471  1.0000
  C   C1        1.0  0.6987600000000003  0.93438  0.30931  1.0000
  C   C2        1.0  0.01695999999999999  0.54288  0.72634  1.0000
  C   C3        1.0  0.85568  0.40492  0.80892  1.0000
  C   C4        1.0  0.10749000000000003  0.7550400000000002  0.26717  1.0000
  C   C5        1.0  0.7845000000000001  0.41469  0.74347  1.0000
  C   C6        1.0  0.35091  0.57311  0.18412  1.0000
  C   C7        1.0  0.41521000000000013  0.56748  0.25146  1.0000
  C   C8        1.0  0.13332  0.43097  0.19782  1.0000
  C   C9        1.0  0.17164  0.45245  0.27206  1.0000
  C   C10       1.0  0.98352  0.48525  0.84369  1.0000
  C   C11       1.0  0.8754000000000001  0.47367  0.69925  1.0000
  C   C12       1.0  0.62648  0.8211100000000001  0.31587  1.0000
  C   C13       1.0  0.21314000000000005  0.4987000000000001  0.15163  1.0000
  C   C14       1.0  0.31837  0.51638  0.2975  1.0000
  C   C15       1.0  0.7609300000000002  0.42049  0.95734  1.0000
  C   C16       1.0  0.15645  0.78257  0.19441  1.0000
  C   C17       1.0  0.65805  0.37373  0.00386  1.0000
  C   C18       1.0  0.70807  0.38853000000000004  0.07466  1.0000
  C   C19       1.0  0.86346  0.44342  0.09665  1.0000
  C   C20       1.0  0.9855900000000001  0.46353000000000005  0.04807  1.0000
  C   C21       1.0  0.9309000000000001  0.4565  0.9747699999999999  1.0000
  C   C22       1.0  0.15502000000000002  0.49391  0.07213  1.0000
  C   C23       1.0  0.4633  0.28973  0.31694  1.0000
  C   C24       1.0  0.26719  0.52118  0.01895  1.0000
  C   C25       1.0  0.21158  0.51971  0.9463700000000002  1.0000
  C   C26       1.0  0.04221000000000005  0.4880300000000001  0.9224400000000001  1.0000
  C   C27       1.0  0.43862  0.54756  0.03503  1.0000
  C   C28       1.0  0.23519000000000007  0.7893500000000002  0.6202  1.0000
  C   C29       1.0  0.54499  0.59392  0.9895400000000001  1.0000
  C   C30       1.0  0.49260000000000004  0.59069  0.9201200000000002  1.0000
  C   C31       1.0  0.3325400000000001  0.54535  0.89804  1.0000
  C   C32       1.0  0.7681300000000002  0.18046  0.52154  1.0000
  C   C33       1.0  0.42366000000000004  0.8095199999999999  0.47427  1.0000
  C   C34       1.0  0.50334  0.28265  0.2382  1.0000
  C   C35       1.0  0.39904999999999996  0.98401  0.4467999999999999  1.0000
  C   C36       1.0  0.33327000000000007  0.8766200000000001  0.44469999999999993  1.0000
  C   C37       1.0  0.57483  0.8500300000000002  0.51115  1.0000
  C   C38       1.0  0.64085  0.9613  0.51624  1.0000
  C   C39       1.0  0.55184  0.028410000000000005  0.48228  1.0000
  C   C40       1.0  0.23196000000000006  0.9094400000000001  0.63322  1.0000
  C   C41       1.0  0.61866  0.13813  0.48446  1.0000
  C   C42       1.0  0.8581200000000002  0.11581000000000002  0.55347  1.0000
  C   C43       1.0  0.79377  0.007409999999999999  0.55238  1.0000
  C   C44       1.0  0.97672  0.20431  0.37746  1.0000
  C   C45       1.0  0.06577  0.22337999999999997  0.72846  1.0000
  C   C46       1.0  0.06165000000000001  0.10673000000000003  0.36546  1.0000
  C   C47       1.0  0.7241500000000004  0.7006500000000001  0.67809  1.0000
  C   C48       1.0  0.7461600000000004  0.7328400000000003  0.75856  1.0000
  C   C49       1.0  0.0927  0.19171  0.80096  1.0000
  C   C50       1.0  0.5563500000000002  0.16313000000000005  0.69237  1.0000
  C   C51       1.0  0.60846  0.08592999999999998  0.73831  1.0000
  C   C52       1.0  0.052420000000000036  0.56176  0.80086  1.0000
  H   H1        1.0  0.66606  0.8110900000000001  0.3701  1.0000
  H   H2        1.0  0.83728  0.67363  0.65726  1.0000
  H   H3        1.0  0.6197600000000002  0.63357  0.66585  1.0000
  H   H4        1.0  0.68746  0.99073  0.35879  1.0000
  H   H5        1.0  0.8565  0.7952400000000002  0.77289  1.0000
  H   H6        1.0  0.7613500000000002  0.66185  0.78321  1.0000
  H   H7        1.0  0.63626  0.76509  0.77987  1.0000
  H   H8        1.0  0.4900600000000001  0.8096100000000003  0.31017  1.0000
  H   H9        1.0  0.33207  0.29514  0.32337  1.0000
  H   H10       1.0  0.53695  0.36612000000000006  0.34434  1.0000
  H   H11       1.0  0.50925  0.36385  0.22415  1.0000
  H   H12       1.0  0.30492  0.94767  0.68281  1.0000
  H   H13       1.0  0.62683  0.25984  0.23037999999999997  1.0000
  H   H14       1.0  0.82916  0.9339500000000001  0.30038  1.0000
  H   H15       1.0  0.2749500000000001  0.8368800000000001  0.20003  1.0000
  H   H16       1.0  0.14232000000000006  0.30282  0.72786  1.0000
  H   H17       1.0  0.93398  0.22893  0.72055  1.0000
  H   H18       1.0  0.22308000000000006  0.18279000000000006  0.80974  1.0000
  H   H19       1.0  0.06186  0.25438  0.84377  1.0000
  H   H20       1.0  0.013560000000000011  0.11417000000000004  0.80391  1.0000
  H   H21       1.0  0.66626  0.19541000000000003  0.6654  1.0000
  H   H22       1.0  0.46507999999999994  0.11803999999999999  0.65019  1.0000
  H   H23       1.0  0.2838700000000002  0.9459800000000003  0.58826  1.0000
  H   H24       1.0  0.70591  0.12914  0.77843  1.0000
  H   H25       1.0  0.65668  0.01937000000000001  0.70446  1.0000
  H   H26       1.0  0.98747  0.70191  0.26137  1.0000
  H   H27       1.0  0.5025199999999999  0.05201999999999996  0.76676  1.0000
  H   H28       1.0  0.13928000000000004  0.63213  0.82354  1.0000
  H   H29       1.0  0.80546  0.3364400000000001  0.83245  1.0000
  H   H30       1.0  0.41142  0.63673  0.1586  1.0000
  H   H31       1.0  0.03938  0.36326  0.17776  1.0000
  H   H32       1.0  0.8310400000000002  0.47021  0.64489  1.0000
  H   H33       1.0  0.36085  0.52261  0.35242  1.0000
  H   H34       1.0  0.10361000000000002  0.9243900000000002  0.639  1.0000
  H   H35       1.0  0.6984700000000001  0.43446000000000007  0.91065  1.0000
  H   H36       1.0  0.53161  0.34056000000000003  0.9872  1.0000
  H   H37       1.0  0.6214000000000002  0.36697  0.11329  1.0000
  H   H38       1.0  0.20194999999999996  0.71014  0.28448  1.0000
  H   H39       1.0  0.88439  0.47177  0.15202  1.0000
  H   H40       1.0  0.49728  0.5271400000000002  0.0805  1.0000
  H   H41       1.0  0.67358  0.61957  0.00541  1.0000
  H   H42       1.0  0.57961  0.61472  0.88196  1.0000
  H   H43       1.0  0.30836  0.52844  0.84226  1.0000
  H   H44       1.0  0.32895  0.031750000000000014  0.42064  1.0000
  H   H45       1.0  0.84386  0.17775  0.38158  1.0000
  H   H46       1.0  0.86511  0.9606100000000002  0.57934  1.0000
  H   H47       1.0  0.8185  0.26421  0.52311  1.0000
  H   H48       1.0  0.37259  0.72556  0.47102999999999995  1.0000
  H   H49       1.0  0.1711  0.7083  0.15854  1.0000
  H   H50       1.0  0.3626700000000001  0.7750700000000001  0.61236  1.0000
  H   H51       1.0  0.1558400000000001  0.7534100000000001  0.57167  1.0000
  H   H52       1.0  0.52683  0.9116  0.12766  1.0000
  H   H53       1.0  0.35267  0.25239  0.07644  1.0000
  H   H54       1.0  0.77628  0.7703100000000002  0.09283  1.0000
  H   H55       1.0  0.027600000000000013  0.2552900000000001  0.42829000000000006  1.0000
  H   H56       1.0  0.023880000000000005  0.05931000000000001  0.31265  1.0000
  H   H57       1.0  0.03546  0.05837  0.40819  1.0000
  H   H58       1.0  0.19422  0.13178  0.36236  1.0000
  O   O1        1.0  0.87511  0.4231800000000001  0.32629  1.0000
  O   O2        1.0  0.19315  0.12467000000000002  0.54591  1.0000
  O   O3        1.0  0.11138  0.14484  0.67578  1.0000
  O   O4        1.0  0.12341000000000008  0.4330400000000002  0.41495  1.0000
  O   O5        1.0  0.57795  0.63437  0.53614  1.0000
  O   O6        1.0  0.3419  0.23131  0.46574  1.0000
  O   O7        1.0  0.50231  0.20019000000000003  0.34467  1.0000
  O   O8        1.0  0.4611000000000001  0.44776000000000005  0.75819  1.0000
  O   O9        1.0  0.48221000000000014  0.24168000000000003  0.7351  1.0000
  O   O10       1.0  0.6610100000000004  0.6250700000000001  0.36968  1.0000
  O   O11       1.0  0.74851  0.5510000000000002  0.24379  1.0000
  O   O12       1.0  0.69375  0.78977  0.64866  1.0000
  O   O13       1.0  0.99699  0.25249  0.31688  1.0000
  O   O14       1.0  0.69108  0.75043  0.2635  1.0000
  O   O15       1.0  0.8478  0.7687300000000002  0.53431  1.0000
  O   O16       1.0  0.08225  0.68447  0.40544  1.0000
  O   O17       1.0  0.99469  0.8752200000000001  0.44622  1.0000
  O   O18       1.0  0.43981  0.005410000000000007  0.2596  1.0000
  O   O19       1.0  0.71098  0.07540000000000001  0.22037000000000004  1.0000
  O   O20       1.0  0.57724  0.88027  0.1654  1.0000
  O   O21       1.0  0.21239000000000005  0.14598000000000003  0.21541999999999997  1.0000
  O   O22       1.0  0.43222  0.10503000000000003  0.13689  1.0000
  O   O23       1.0  0.10012  0.84856  0.31679  1.0000
  O   O24       1.0  0.28265  0.26201  0.11767  1.0000
  O   O25       1.0  0.9786200000000002  0.9425300000000002  0.19004  1.0000
  O   O26       1.0  0.07567  0.8575500000000001  0.07815  1.0000
  O   O27       1.0  0.8339100000000002  0.7496400000000001  0.13338  1.0000
  O   O28       1.0  0.3146  0.57686  0.67375  1.0000
  O   O29       1.0  0.06629999999999997  0.56705  0.58506  1.0000
  O   O30       1.0  0.5287000000000002  0.37502  0.63033  1.0000
  O   O31       1.0  0.17949  0.74839  0.68042  1.0000
  O   O32       1.0  0.61176  0.36572  0.46387  1.0000
  O   O33       1.0  0.10746000000000001  0.31562  0.59457  1.0000
  P   P1        1.0  0.04293000000000003  0.39223000000000013  0.33741  1.0000
  P   P2        1.0  0.6722300000000002  0.7549000000000001  0.55573  1.0000
  P   P3        1.0  0.12681000000000003  0.8221100000000001  0.40391  1.0000
  P   P4        1.0  0.14679000000000003  0.60786  0.6626  1.0000
  P   P5        1.0  0.06547000000000003  0.17562  0.59212  1.0000
  P   P6        1.0  0.62791  0.62123  0.2798  1.0000
  P   P7        1.0  0.52058  0.23076000000000005  0.43831  1.0000
  P   P8        1.0  0.56586  0.3690800000000001  0.7189400000000001  1.0000
  S   S1        1.0  0.60351  0.97781  0.23736  1.0000
  S   S2        1.0  0.35413  0.19399  0.17702  1.0000
  S   S3        1.0  0.00905999999999999  0.83796  0.14833  1.0000
