data_image0
_chemical_formula_structural       C24H16N2O10Zn2
_chemical_formula_sum              "C24 H16 N2 O10 Zn2"
_cell_length_a       7.7726
_cell_length_b       8.55151
_cell_length_c       14.87391
_cell_angle_alpha    91.11088
_cell_angle_beta     85.93792000000002
_cell_angle_gamma    93.57809

_space_group_name_H-M_alt    "P 1"
_space_group_IT_number       1

loop_
  _space_group_symop_operation_xyz
  'x, y, z'

loop_
  _atom_site_type_symbol
  _atom_site_label
  _atom_site_symmetry_multiplicity
  _atom_site_fract_x
  _atom_site_fract_y
  _atom_site_fract_z
  _atom_site_occupancy
  C   C1        1.0  0.5457  0.79467  0.49767  1.0000
  C   C2        1.0  0.6021799999999998  0.6157299999999998  0.8108500000000002  1.0000
  C   C3        1.0  0.4934599999999999  0.50258  0.23212000000000005  1.0000
  C   C4        1.0  0.50654  0.49742  0.7678800000000002  1.0000
  C   C5        1.0  0.5904299999999996  0.6201099999999998  0.18482  1.0000
  C   C6        1.0  0.40955  0.37989999999999996  0.81518  1.0000
  C   C7        1.0  0.5917499999999997  0.62127  0.09184  1.0000
  C   C8        1.0  0.40823999999999994  0.37874  0.9081600000000002  1.0000
  C   C9        1.0  0.49794999999999995  0.50046  0.04683  1.0000
  C   C10       1.0  0.5020499999999998  0.49955  0.95317  1.0000
  C   C11       1.0  0.4012099999999999  0.38006  0.09569  1.0000
  C   C12       1.0  0.4543  0.20533000000000004  0.5023300000000002  1.0000
  C   C13       1.0  0.5988  0.61994  0.90431  1.0000
  C   C14       1.0  0.6860399999999998  0.7406099999999999  0.04359  1.0000
  C   C15       1.0  0.3139499999999999  0.2594  0.9564  1.0000
  C   C16       1.0  0.69165  0.99744  0.90858  1.0000
  C   C17       1.0  0.3085599999999999  0.00262  0.09149000000000003  1.0000
  C   C18       1.0  0.6872399999999997  0.7428299999999998  0.9497700000000002  1.0000
  C   C19       1.0  0.31278  0.25716  0.050220000000000015  1.0000
  C   C20       1.0  0.5698399999999998  0.95815  0.4963100000000001  1.0000
  C   C21       1.0  0.43016  0.04185  0.50369  1.0000
  C   C22       1.0  0.5022299999999997  0.49968999999999997  0.6728  1.0000
  C   C23       1.0  0.4977699999999999  0.50031  0.3272000000000001  1.0000
  C   C24       1.0  0.39784  0.38427  0.18915000000000007  1.0000
  H   H1        1.0  0.32559  0.2939999999999999  0.22888  1.0000
  H   H2        1.0  0.9863199999999998  0.6175  0.5680500000000003  1.0000
  H   H3        1.0  0.6819499999999997  0.04466  0.9788600000000002  1.0000
  H   H4        1.0  0.56061  0.97737  0.88306  1.0000
  H   H5        1.0  0.7633599999999998  0.08813999999999998  0.8658700000000003  1.0000
  H   H6        1.0  0.43941999999999987  0.022799999999999994  0.11719000000000003  1.0000
  H   H7        1.0  0.23675999999999994  0.91183  0.13409  1.0000
  H   H8        1.0  0.31863999999999987  0.95547  0.02122  1.0000
  H   H9        1.0  0.6744299999999995  0.70599  0.77112  1.0000
  H   H10       1.0  0.6633699999999998  0.71066  0.22075000000000006  1.0000
  H   H11       1.0  0.3365999999999999  0.28935  0.7792500000000002  1.0000
  H   H12       1.0  0.7586299999999998  0.8323999999999998  0.07856000000000003  1.0000
  H   H13       1.0  0.24135999999999988  0.1676  0.92144  1.0000
  H   H14       1.0  0.70182  0.00907  0.48925000000000013  1.0000
  H   H15       1.0  0.29817999999999995  0.99093  0.51075  1.0000
  H   H16       1.0  0.013679999999999982  0.3824999999999999  0.4319500000000001  1.0000
  N   N1        1.0  0.9503299999999997  0.45795  0.47566  1.0000
  N   N2        1.0  0.049669999999999964  0.54205  0.5243400000000001  1.0000
  O   O1        1.0  0.3892499999999999  0.73857  0.50597  1.0000
  O   O2        1.0  0.21687999999999993  0.14017  0.09772  1.0000
  O   O3        1.0  0.6107499999999998  0.26143  0.49403000000000014  1.0000
  O   O4        1.0  0.6783899999999998  0.71162  0.49037  1.0000
  O   O5        1.0  0.3216099999999999  0.28838  0.50963  1.0000
  O   O6        1.0  0.35541999999999996  0.5135099999999998  0.63995  1.0000
  O   O7        1.0  0.6445799999999998  0.48649  0.36005000000000004  1.0000
  O   O8        1.0  0.64456  0.48655999999999994  0.62435  1.0000
  O   O9        1.0  0.35544  0.51344  0.37565000000000004  1.0000
  O   O10       1.0  0.7831699999999998  0.8598  0.9022700000000002  1.0000
  Zn  Zn1       1.0  0.30693999999999994  0.51799  0.51042  1.0000
  Zn  Zn2       1.0  0.6930599999999997  0.48201000000000005  0.4895800000000001  1.0000
