data_image0
_chemical_formula_structural       Ba2C42H51O24P8Br
_chemical_formula_sum              "Ba2 C42 H51 O24 P8 Br1"
_cell_length_a       8.19503
_cell_length_b       14.23086
_cell_length_c       15.04197
_cell_angle_alpha    93.64073
_cell_angle_beta     99.07363999999998
_cell_angle_gamma    90.80611

_symmetry_space_group_name_H-M    'P 1'
_symmetry_Int_Tables_number       1

loop_
  _symmetry_equiv_pos_as_xyz
  'x,y,z'

loop_
  _atom_site_type_symbol
  _atom_site_label
  _atom_site_symmetry_multiplicity
  _atom_site_fract_x
  _atom_site_fract_y
  _atom_site_fract_z
  _atom_site_occupancy
  Ba  Ba1       1.0  0.14288  0.54478  0.45402  1.0000
  Ba  Ba2       1.0  0.66729  0.45521  0.5459  1.0000
  C   C1        1.0  0.27276  0.77319  0.09948  1.0000
  C   C2        1.0  0.32053  0.7472499999999999  0.19648  1.0000
  C   C3        1.0  0.53066  0.74255  0.6546  1.0000
  C   C4        1.0  0.5736899999999998  0.8471  0.67392  1.0000
  C   C5        1.0  0.9641  0.19697000000000003  0.7517700000000002  1.0000
  C   C6        1.0  0.95533  0.09701  0.78208  1.0000
  C   C7        1.0  0.48907999999999996  0.25226  0.80175  1.0000
  C   C8        1.0  0.53006  0.22452000000000003  0.89861  1.0000
  C   C9        1.0  0.017439999999999994  0.93841  0.54458  1.0000
  C   C10       1.0  0.82044  0.80212  0.49512  1.0000
  C   C11       1.0  0.66489  0.77131  0.45017  1.0000
  C   C12       1.0  0.84757  0.79685  0.24265  1.0000
  C   C13       1.0  0.55067  0.8346  0.41132  1.0000
  C   C14       1.0  0.595  0.92968  0.41059  1.0000
  C   C15       1.0  0.7524899999999998  0.96327  0.45248  1.0000
  C   C16       1.0  0.86534  0.9004  0.49789  1.0000
  C   C17       1.0  0.94745  0.09752999999999999  0.49775  1.0000
  C   C18       1.0  0.06037  0.03471  0.54327  1.0000
  C   C19       1.0  0.9918  0.19587  0.50095  1.0000
  C   C20       1.0  0.14613999999999996  0.2272  0.5474499999999999  1.0000
  C   C21       1.0  0.26107  0.16399  0.58587  1.0000
  C   C22       1.0  0.21757000000000004  0.06853  0.5857  1.0000
  C   C23       1.0  0.8516099999999998  0.89501  0.20830000000000004  1.0000
  C   C24       1.0  0.79511  0.059719999999999995  0.45149  1.0000
  C   C25       1.0  0.24313  0.46348  0.76807  1.0000
  C   C26       1.0  0.15474  0.42624  0.8302299999999999  1.0000
  C   C27       1.0  0.21660999999999994  0.43777999999999995  0.92281  1.0000
  C   C28       1.0  0.36493  0.49126  0.95478  1.0000
  C   C29       1.0  0.44339  0.5341599999999997  0.88969  1.0000
  C   C30       1.0  0.38406  0.51955  0.79786  1.0000
  C   C31       1.0  0.59126  0.55138  0.08349  1.0000
  C   C32       1.0  0.65529  0.56581  0.17515  1.0000
  C   C33       1.0  0.41864  0.48455  0.21348  1.0000
  C   C34       1.0  0.76136  0.33648  0.27773  1.0000
  C   C35       1.0  0.35171  0.47125  0.12169  1.0000
  C   C36       1.0  0.4351199999999998  0.5057  0.05414  1.0000
  C   C37       1.0  0.56656  0.5351  0.24  1.0000
  C   C38       1.0  0.72151  0.30728  0.17737  1.0000
  C   C39       1.0  0.09353999999999996  0.71157  0.7321199999999999  1.0000
  C   C40       1.0  0.18620999999999993  0.79261  0.79346  1.0000
  C   C41       1.0  0.28305  0.25912  0.35638  1.0000
  C   C42       1.0  0.27288  0.15253  0.33655  1.0000
  H   H1        1.0  0.2603600000000001  0.67828  0.20322  1.0000
  H   H2        1.0  0.6222  0.25201  0.16537  1.0000
  H   H3        1.0  0.67958  0.36802999999999997  0.13783  1.0000
  H   H4        1.0  0.83357  0.27889  0.15322  1.0000
  H   H5        1.0  0.18051999999999999  0.6716299999999998  0.69495  1.0000
  H   H6        1.0  0.23262000000000005  0.84672  0.7526000000000002  1.0000
  H   H7        1.0  0.29196  0.76543  0.83933  1.0000
  H   H8        1.0  0.10086000000000006  0.82759  0.83578  1.0000
  H   H9        1.0  0.16359  0.2834  0.37406  1.0000
  H   H10       1.0  0.38376  0.27612  0.41376  1.0000
  H   H11       1.0  0.13653000000000004  0.77208  0.08108  1.0000
  H   H12       1.0  0.16823  0.13348  0.28168  1.0000
  H   H13       1.0  0.25363999999999987  0.11584  0.39718  1.0000
  H   H14       1.0  0.3899999999999999  0.12792  0.31497  1.0000
  H   H15       1.0  0.45639  0.74062  0.21022  1.0000
  H   H16       1.0  0.32412  0.7219499999999999  0.05328  1.0000
  H   H17       1.0  0.63702  0.70762  0.63008  1.0000
  H   H18       1.0  0.42075  0.73453  0.60119  1.0000
  H   H19       1.0  0.68413  0.85716  0.72689  1.0000
  H   H20       1.0  0.59998  0.87842  0.6119  1.0000
  H   H21       1.0  0.46904  0.88474  0.69705  1.0000
  H   H22       1.0  0.32204  0.84451  0.0913  1.0000
  H   H23       1.0  0.80847  0.947  0.25674  1.0000
  H   H24       1.0  0.8819799999999998  0.19985  0.68578  1.0000
  H   H25       1.0  0.09336999999999998  0.21276  0.74345  1.0000
  H   H26       1.0  0.82551  0.07753  0.78687  1.0000
  H   H27       1.0  0.00018999999999999372  0.04574  0.73262  1.0000
  H   H28       1.0  0.03429000000000002  0.0928  0.84871  1.0000
  H   H29       1.0  0.35399  0.26275  0.78633  1.0000
  H   H30       1.0  0.55534  0.3196799999999999  0.79644  1.0000
  H   H31       1.0  0.4893199999999999  0.27978000000000003  0.94508  1.0000
  H   H32       1.0  0.66533  0.21634999999999993  0.91732  1.0000
  H   H33       1.0  0.93677  0.79621  0.30617  1.0000
  H   H34       1.0  0.46547  0.15732  0.90604  1.0000
  H   H35       1.0  0.62865  0.69788  0.44999  1.0000
  H   H36       1.0  0.50535  0.9776  0.37899  1.0000
  H   H37       1.0  0.30721  0.02066  0.61744  1.0000
  H   H38       1.0  0.18110999999999994  0.30121  0.54917  1.0000
  H   H39       1.0  0.10504000000000002  0.89392  0.58222  1.0000
  H   H40       1.0  0.70727  0.10466999999999997  0.4146  1.0000
  H   H41       1.0  0.66938  0.57395  0.03731  1.0000
  H   H42       1.0  0.14396  0.40678  0.96759  1.0000
  H   H43       1.0  0.23665999999999995  0.43195  0.10534  1.0000
  H   H44       1.0  0.72144  0.7819  0.25654  1.0000
  H   H45       1.0  0.54815  0.58199  0.9078  1.0000
  H   H46       1.0  0.61825  0.54453  0.311  1.0000
  H   H47       1.0  0.19533999999999996  0.45517  0.69664  1.0000
  H   H48       1.0  0.9791500000000003  0.91514  0.20008  1.0000
  H   H49       1.0  0.76963  0.89638  0.14261  1.0000
  H   H50       1.0  0.64719  0.3597  0.30214  1.0000
  H   H51       1.0  0.85417  0.39517  0.28791  1.0000
  O   O1        1.0  0.11368999999999994  0.7282  0.53275  1.0000
  O   O2        1.0  0.31471  0.30109  0.27871  1.0000
  O   O3        1.0  0.89053  0.7309499999999998  0.17744  1.0000
  O   O4        1.0  0.6966  0.27174  0.46723  1.0000
  O   O5        1.0  0.93838  0.38788  0.45949  1.0000
  O   O6        1.0  0.48463  0.3311  0.62733  1.0000
  O   O7        1.0  0.8231899999999999  0.25826  0.32287  1.0000
  O   O8        1.0  0.3891099999999999  0.54897  0.60521  1.0000
  O   O9        1.0  0.90474  0.37863  0.67033  1.0000
  O   O10       1.0  0.81227  0.43425  0.82595  1.0000
  O   O11       1.0  0.91259  0.26035  0.81672  1.0000
  O   O12       1.0  0.8719  0.61211  0.54044  1.0000
  O   O13       1.0  0.42118  0.45102  0.39472  1.0000
  O   O14       1.0  0.66273  0.54823  0.71735  1.0000
  O   O15       1.0  0.49696  0.7043899999999998  0.73399  1.0000
  O   O16       1.0  0.59909  0.16501  0.5777  1.0000
  O   O17       1.0  0.53916  0.18121  0.7434  1.0000
  O   O18       1.0  0.32566  0.66889  0.3726  1.0000
  O   O19       1.0  0.21394999999999995  0.83507  0.42199  1.0000
  O   O20       1.0  0.96363  0.7504899999999999  0.67554  1.0000
  O   O21       1.0  0.26772  0.81721  0.25515  1.0000
  O   O22       1.0  0.14757  0.45171  0.28263  1.0000
  O   O23       1.0  0.90554  0.62135  0.3296  1.0000
  O   O24       1.0  0.99492  0.55812  0.17424  1.0000
  P   P1        1.0  0.9475599999999997  0.7140499999999999  0.56048  1.0000
  P   P2        1.0  0.32515  0.42386  0.29797  1.0000
  P   P3        1.0  0.86231  0.61771  0.21238  1.0000
  P   P4        1.0  0.86273  0.28594  0.43944  1.0000
  P   P5        1.0  0.94648  0.37559  0.78762  1.0000
  P   P6        1.0  0.33988  0.79059  0.36633  1.0000
  P   P7        1.0  0.48079  0.5816299999999999  0.71605  1.0000
  P   P8        1.0  0.47079  0.20888  0.63211  1.0000
  Br  Br1       1.0  0.9941599999999999  0.63313  0.81209  1.0000
