data_image0
_chemical_formula_structural       Ba2C52H48O24P8SO3HSO3HSO3HCHOSO3HSO3HCHOSO3HCHOSO3H
_chemical_formula_sum              "Ba2 C55 H58 O48 P8 S7"
_cell_length_a       8.68469
_cell_length_b       13.201099999999999
_cell_length_c       19.09046
_cell_angle_alpha    101.57911
_cell_angle_beta     90.52597000000002
_cell_angle_gamma    100.19962

_space_group_name_H-M_alt    "P 1"
_space_group_IT_number       1

loop_
  _space_group_symop_operation_xyz
  'x, y, z'

loop_
  _atom_site_type_symbol
  _atom_site_label
  _atom_site_symmetry_multiplicity
  _atom_site_fract_x
  _atom_site_fract_y
  _atom_site_fract_z
  _atom_site_occupancy
  Ba  Ba1       1.0  0.85318  0.54779  0.4653  1.0000
  Ba  Ba2       1.0  0.33665  0.4523  0.53471  1.0000
  C   C1        1.0  0.56134  0.90469  0.28658  1.0000
  C   C2        1.0  0.60387  0.8231099999999999  0.32304  1.0000
  C   C3        1.0  0.4535  0.17851000000000003  0.29825  1.0000
  C   C4        1.0  0.51058  0.12009  0.22494  1.0000
  C   C5        1.0  0.10975  0.26457  0.73966  1.0000
  C   C6        1.0  0.12122  0.25974  0.8208800000000003  1.0000
  C   C7        1.0  0.48893  0.19073000000000007  0.7311900000000001  1.0000
  C   C8        1.0  0.40031  0.11963  0.77663  1.0000
  C   C9        1.0  0.06633000000000004  0.5689700000000001  0.8054100000000002  1.0000
  C   C10       1.0  0.016429999999999986  0.5593  0.7331500000000001  1.0000
  C   C11       1.0  0.83866  0.44106000000000006  0.8180100000000001  1.0000
  C   C12       1.0  0.048240000000000026  0.7607500000000001  0.27783000000000013  1.0000
  C   C13       1.0  0.76741  0.45885  0.75654  1.0000
  C   C14       1.0  0.32999  0.59132  0.19144  1.0000
  C   C15       1.0  0.39205  0.58358  0.2575  1.0000
  C   C16       1.0  0.12524999999999997  0.44439999999999996  0.19865  1.0000
  C   C17       1.0  0.15896999999999997  0.46282  0.27357  1.0000
  C   C18       1.0  0.97943  0.50652  0.8507900000000003  1.0000
  C   C19       1.0  0.85715  0.52103  0.7160700000000002  1.0000
  C   C20       1.0  0.20143000000000003  0.51583  0.15633000000000005  1.0000
  C   C21       1.0  0.2959  0.53243  0.3017400000000001  1.0000
  C   C22       1.0  0.76526  0.4573400000000001  0.9700400000000001  1.0000
  C   C23       1.0  0.9744599999999999  0.7908  0.21338  1.0000
  C   C24       1.0  0.66559  0.41159  0.01642  1.0000
  C   C25       1.0  0.7163  0.42653  0.08701  1.0000
  C   C26       1.0  0.8695199999999998  0.47471  0.10736000000000001  1.0000
  C   C27       1.0  0.98384  0.48928  0.05645000000000001  1.0000
  C   C28       1.0  0.92909  0.4843  0.9841200000000001  1.0000
  C   C29       1.0  0.14654  0.51348  0.07797000000000003  1.0000
  C   C30       1.0  0.25313  0.53689  0.023670000000000004  1.0000
  C   C31       1.0  0.19837  0.52618  0.9505  1.0000
  C   C32       1.0  0.03549999999999998  0.5058200000000002  0.9292000000000001  1.0000
  C   C33       1.0  0.41684  0.56976  0.03879  1.0000
  C   C34       1.0  0.18737  0.78821  0.61804  1.0000
  C   C35       1.0  0.51606  0.60542  0.98879  1.0000
  C   C36       1.0  0.46595999999999993  0.58117  0.91766  1.0000
  C   C37       1.0  0.31258  0.53125  0.89884  1.0000
  C   C38       1.0  0.74808  0.18431000000000006  0.5392300000000001  1.0000
  C   C39       1.0  0.43230999999999997  0.8107699999999999  0.47881000000000007  1.0000
  C   C40       1.0  0.40697999999999995  0.98141  0.45653000000000005  1.0000
  C   C41       1.0  0.34331999999999996  0.87532  0.453  1.0000
  C   C42       1.0  0.58139  0.85081  0.5125700000000001  1.0000
  C   C43       1.0  0.6422299999999999  0.9628099999999999  0.52009  1.0000
  C   C44       1.0  0.55281  0.02851000000000001  0.49089000000000005  1.0000
  C   C45       1.0  0.13141999999999995  0.8924299999999998  0.63832  1.0000
  C   C46       1.0  0.60828  0.14055000000000004  0.49918000000000007  1.0000
  C   C47       1.0  0.84249  0.12128000000000004  0.56371  1.0000
  C   C48       1.0  0.78908  0.011700000000000025  0.55461  1.0000
  C   C49       1.0  0.05114  0.18899  0.3267000000000001  1.0000
  C   C50       1.0  0.03044  0.10105  0.26062  1.0000
  C   C51       1.0  0.56974  0.77552  0.68654  1.0000
  C   C52       1.0  0.5193600000000002  0.8717800000000001  0.7282800000000001  1.0000
  H   H1        1.0  0.69099  0.8599100000000001  0.36788  1.0000
  H   H2        1.0  0.20573  0.94372  0.6835000000000001  1.0000
  H   H3        1.0  0.13775000000000007  0.93157  0.59198  1.0000
  H   H4        1.0  0.009239999999999993  0.88028  0.65546  1.0000
  H   H5        1.0  0.17151  0.22749  0.33845  1.0000
  H   H6        1.0  0.033260000000000005  0.13651000000000002  0.21285000000000007  1.0000
  H   H7        1.0  0.91713  0.047050000000000015  0.25849000000000005  1.0000
  H   H8        1.0  0.12092  0.05215  0.26001  1.0000
  H   H9        1.0  0.6024300000000001  0.7329300000000002  0.7272500000000001  1.0000
  H   H10       1.0  0.47127  0.7276900000000001  0.6516400000000002  1.0000
  H   H11       1.0  0.66653  0.94321  0.26316  1.0000
  H   H12       1.0  0.61773  0.92031  0.76434  1.0000
  H   H13       1.0  0.42052000000000006  0.8496400000000001  0.7619200000000002  1.0000
  H   H14       1.0  0.48188999999999993  0.91536  0.68932  1.0000
  H   H15       1.0  0.49344000000000005  0.78627  0.3438  1.0000
  H   H16       1.0  0.51063  0.96332  0.32472  1.0000
  H   H17       1.0  0.34308  0.13148  0.30963  1.0000
  H   H18       1.0  0.49168000000000006  0.03713000000000001  0.22655000000000003  1.0000
  H   H19       1.0  0.47460000000000013  0.8648200000000001  0.24247  1.0000
  H   H20       1.0  0.89151  0.72171  0.18311  1.0000
  H   H21       1.0  0.22085  0.308  0.72493  1.0000
  H   H22       1.0  0.027600000000000003  0.3169  0.73312  1.0000
  H   H23       1.0  0.2439  0.28678  0.84086  1.0000
  H   H24       1.0  0.058780000000000006  0.31941  0.85048  1.0000
  H   H25       1.0  0.42108  0.15785000000000002  0.83393  1.0000
  H   H26       1.0  0.27466  0.10235  0.76122  1.0000
  H   H27       1.0  0.95114  0.71383  0.30142  1.0000
  H   H28       1.0  0.43838  0.04429999999999999  0.77132  1.0000
  H   H29       1.0  0.17245999999999997  0.6243499999999998  0.82443  1.0000
  H   H30       1.0  0.7791999999999999  0.37884  0.84106  1.0000
  H   H31       1.0  0.38521  0.65619  0.1685  1.0000
  H   H32       1.0  0.035179999999999996  0.37828  0.17507  1.0000
  H   H33       1.0  0.33441  0.54144  0.35701  1.0000
  H   H34       1.0  0.7084099999999999  0.477  0.9261900000000001  1.0000
  H   H35       1.0  0.6358  0.40563999999999995  0.12681  1.0000
  H   H36       1.0  0.13656999999999997  0.7112399999999999  0.26003  1.0000
  H   H37       1.0  0.89665  0.49956  0.16346  1.0000
  H   H38       1.0  0.47634  0.56128  0.086  1.0000
  H   H39       1.0  0.63804  0.63812  0.00367  1.0000
  H   H40       1.0  0.54894  0.59442  0.87709  1.0000
  H   H41       1.0  0.28374  0.49596  0.84364  1.0000
  H   H42       1.0  0.34252  0.02747  0.43181  1.0000
  H   H43       1.0  0.86269  0.9658400000000001  0.57543  1.0000
  H   H44       1.0  0.79091  0.26795  0.54639  1.0000
  H   H45       1.0  0.38225999999999993  0.72844  0.47435000000000005  1.0000
  H   H46       1.0  0.90917  0.85527  0.23246  1.0000
  H   H47       1.0  0.30619  0.8037099999999999  0.59857  1.0000
  H   H48       1.0  0.11037  0.73859  0.5732100000000001  1.0000
  O   O1        1.0  0.87511  0.42318  0.3262900000000001  1.0000
  O   O2        1.0  0.7019699999999999  0.8044699999999999  0.64863  1.0000
  O   O3        1.0  0.11807000000000002  0.8515900000000001  0.3277500000000001  1.0000
  O   O4        1.0  0.3146  0.57686  0.6737500000000002  1.0000
  O   O5        1.0  0.0663  0.56705  0.58506  1.0000
  O   O6        1.0  0.5287  0.37502  0.6303300000000002  1.0000
  O   O7        1.0  0.19349  0.74594  0.67994  1.0000
  O   O8        1.0  0.61176  0.36571999999999993  0.46387000000000006  1.0000
  O   O9        1.0  0.10745999999999999  0.31561999999999996  0.59457  1.0000
  O   O10       1.0  0.15621  0.12045000000000007  0.5589000000000001  1.0000
  O   O11       1.0  0.07262999999999999  0.16592999999999997  0.69205  1.0000
  O   O12       1.0  0.12340999999999999  0.43304  0.4149500000000001  1.0000
  O   O13       1.0  0.57795  0.63437  0.53614  1.0000
  O   O14       1.0  0.3419  0.23131000000000002  0.46574000000000004  1.0000
  O   O15       1.0  0.56251  0.18241  0.35472  1.0000
  O   O16       1.0  0.46345  0.48195  0.75205  1.0000
  O   O17       1.0  0.47008999999999995  0.29385  0.7639000000000002  1.0000
  O   O18       1.0  0.66101  0.62507  0.36968  1.0000
  O   O19       1.0  0.7051199999999997  0.56382  0.23342  1.0000
  O   O20       1.0  0.95386  0.259  0.31887  1.0000
  O   O21       1.0  0.67018  0.7545  0.27185000000000004  1.0000
  O   O22       1.0  0.8478  0.76873  0.53431  1.0000
  O   O23       1.0  0.08225  0.68447  0.40544  1.0000
  O   O24       1.0  0.02160999999999995  0.87359  0.4572  1.0000
  P   P1        1.0  0.042929999999999996  0.39223  0.33741000000000004  1.0000
  P   P2        1.0  0.67223  0.7549  0.55573  1.0000
  P   P3        1.0  0.14312  0.82008  0.41209  1.0000
  P   P4        1.0  0.14679000000000006  0.6078600000000001  0.6626  1.0000
  P   P5        1.0  0.04319  0.18331  0.6033  1.0000
  P   P6        1.0  0.6027299999999999  0.62818  0.28287  1.0000
  P   P7        1.0  0.52243  0.22852000000000003  0.4467500000000001  1.0000
  P   P8        1.0  0.5615  0.39671  0.7244700000000001  1.0000
  S   S1        1.0  0.99385  0.13718  0.40119  1.0000
  O   O25       1.0  0.10112  0.06624000000000001  0.41501000000000005  1.0000
  O   O26       1.0  0.008009999999999995  0.23137  0.4607  1.0000
  O   O27       1.0  0.81127  0.06841  0.39071  1.0000
  H   H49       1.0  0.76568  0.08818  0.34926  1.0000
  S   S2        1.0  0.43074  0.30645  0.29025  1.0000
  O   O28       1.0  0.29865  0.29524  0.23681  1.0000
  O   O29       1.0  0.39422  0.36738  0.36133  1.0000
  O   O30       1.0  0.5907100000000001  0.37099  0.26106  1.0000
  H   H50       1.0  0.62142  0.43083000000000005  0.30139000000000005  1.0000
  S   S3        1.0  0.41287  0.12074000000000001  0.14098000000000002  1.0000
  O   O31       1.0  0.23862999999999998  0.09644999999999998  0.1427  1.0000
  O   O32       1.0  0.46047999999999994  0.22557  0.12067  1.0000
  O   O33       1.0  0.46737  0.02751  0.0772  1.0000
  H   H51       1.0  0.5475399999999999  0.06545  0.05049000000000001  1.0000
  C   C53       1.0  0.6807  0.1536  0.21421  1.0000
  H   H52       1.0  0.74037  0.23169  0.23777  1.0000
  O   O34       1.0  0.7482  0.09662000000000001  0.17164000000000004  1.0000
  S   S4        1.0  0.04750000000000001  0.14000000000000004  0.8522800000000003  1.0000
  O   O35       1.0  0.17817  0.10038000000000001  0.88398  1.0000
  O   O36       1.0  0.9390500000000002  0.16448000000000002  0.9117000000000001  1.0000
  O   O37       1.0  0.95338  0.04445000000000008  0.7862800000000002  1.0000
  H   H53       1.0  0.9187899999999999  0.9836500000000004  0.8090700000000002  1.0000
  S   S5        1.0  0.68606  0.17480000000000004  0.7342400000000001  1.0000
  O   O38       1.0  0.70435  0.06561000000000004  0.6996600000000002  1.0000
  O   O39       1.0  0.77812  0.24986999999999998  0.69488  1.0000
  O   O40       1.0  0.74533  0.19923999999999994  0.8203  1.0000
  H   H54       1.0  0.68972  0.13871  0.83901  1.0000
  C   C54       1.0  0.42351  0.15615000000000007  0.6557000000000002  1.0000
  H   H55       1.0  0.38520000000000004  0.21083  0.62792  1.0000
  O   O41       1.0  0.41208  0.06466999999999999  0.62494  1.0000
  S   S6        1.0  0.7709299999999998  0.55798  0.64574  1.0000
  O   O42       1.0  0.7795900000000001  0.47323  0.5818300000000002  1.0000
  O   O43       1.0  0.60511  0.56979  0.65519  1.0000
  O   O44       1.0  0.87206  0.67457  0.63973  1.0000
  H   H56       1.0  0.88773  0.71474  0.6899  1.0000
  C   C55       1.0  0.50516  0.35625  0.9926800000000002  1.0000
  H   H57       1.0  0.42025  0.33669  0.03134  1.0000
  O   O45       1.0  0.46597  0.33192  0.9292300000000001  1.0000
  S   S7        1.0  0.11202000000000005  0.83348  0.15221000000000007  1.0000
  O   O46       1.0  0.24659  0.90965  0.1928  1.0000
  O   O47       1.0  0.17172999999999997  0.7422299999999998  0.10841  1.0000
  O   O48       1.0  0.02454999999999992  0.8932599999999999  0.09737000000000003  1.0000
  H   H58       1.0  0.93525  0.83943  0.07357  1.0000
