data_image0
_chemical_formula_structural       C112H112N32Ni8O48
_chemical_formula_sum              "C112 H112 N32 Ni8 O48"
_cell_length_a       19.93233
_cell_length_b       17.42798
_cell_length_c       15.50978
_cell_angle_alpha    90.17723
_cell_angle_beta     52.47360000000001
_cell_angle_gamma    90.46062

_symmetry_space_group_name_H-M    'P 1'
_symmetry_Int_Tables_number       1

loop_
  _symmetry_equiv_pos_as_xyz
  'x,y,z'

loop_
  _atom_site_type_symbol
  _atom_site_label
  _atom_site_symmetry_multiplicity
  _atom_site_fract_x
  _atom_site_fract_y
  _atom_site_fract_z
  _atom_site_occupancy
  C   C1        1.0  0.35672  0.18795  0.021439999999999994  1.0000
  C   C2        1.0  0.6766100000000002  0.73419  0.45010999999999995  1.0000
  C   C3        1.0  0.13228  0.96423  0.50973  1.0000
  C   C4        1.0  0.61698  0.55893  0.68065  1.0000
  C   C5        1.0  0.4053399999999999  0.44047  0.3454  1.0000
  C   C6        1.0  0.25942999999999994  0.60324  0.36639999999999995  1.0000
  C   C7        1.0  0.7076700000000001  0.39379  0.48441999999999996  1.0000
  C   C8        1.0  0.37004999999999993  0.16415  0.60035  1.0000
  C   C9        1.0  0.58283  0.78517  0.4250099999999999  1.0000
  C   C10       1.0  0.7431000000000001  0.18519  0.30882  1.0000
  C   C11       1.0  0.2883900000000001  0.79057  0.65216  1.0000
  C   C12       1.0  0.8127800000000001  0.64505  0.6034399999999999  1.0000
  C   C13       1.0  0.7947799999999999  0.19223  0.41006  1.0000
  C   C14       1.0  0.21242  0.37944  0.3742599999999999  1.0000
  C   C15       1.0  0.13573  0.79205  0.34396  1.0000
  C   C16       1.0  0.8446100000000001  0.24319  0.6743299999999999  1.0000
  C   C17       1.0  0.21590000000000004  0.80207  0.57914  1.0000
  C   C18       1.0  0.72812  0.70995  0.57255  1.0000
  C   C19       1.0  0.27747  0.29768  0.42005999999999993  1.0000
  C   C20       1.0  0.18386000000000008  0.75715  0.4419099999999999  1.0000
  C   C21       1.0  0.8066699999999999  0.25315  0.56034  1.0000
  C   C22       1.0  0.27198000000000017  0.70191  0.9669699999999998  1.0000
  C   C23       1.0  0.72755  0.29773  0.03456  1.0000
  C   C24       1.0  0.76851  0.72473  0.9647999999999999  1.0000
  C   C25       1.0  0.6278400000000002  0.80514  0.9983499999999997  1.0000
  C   C26       1.0  0.20305999999999996  0.25831  0.06574  1.0000
  C   C27       1.0  0.74549  0.22205  0.01572  1.0000
  C   C28       1.0  0.25437000000000004  0.77766  0.9854699999999997  1.0000
  C   C29       1.0  0.26615000000000005  0.22478000000000004  0.9719899999999998  1.0000
  C   C30       1.0  0.70787  0.75962  0.05898  1.0000
  C   C31       1.0  0.3489300000000001  0.82893  0.22165999999999994  1.0000
  C   C32       1.0  0.6465300000000002  0.17621  0.7779  1.0000
  C   C33       1.0  0.609  0.80341  0.7872399999999998  1.0000
  C   C34       1.0  0.38943999999999995  0.19609  0.21245  1.0000
  C   C35       1.0  0.89918  0.30121  0.2074  1.0000
  C   C36       1.0  0.64514  0.18786  0.9771299999999998  1.0000
  C   C37       1.0  0.10542000000000006  0.69772  0.7886  1.0000
  C   C38       1.0  0.14962999999999999  0.32814  0.77957  1.0000
  C   C39       1.0  0.84898  0.67071  0.22210999999999997  1.0000
  C   C40       1.0  0.3450800000000001  0.89679  0.9256099999999999  1.0000
  C   C41       1.0  0.65435  0.10314  0.07533  1.0000
  C   C42       1.0  0.63809  0.88945  0.09676  1.0000
  C   C43       1.0  0.3505700000000001  0.10427  0.9180299999999998  1.0000
  C   C44       1.0  0.8326  0.40693  0.94714  1.0000
  C   C45       1.0  0.1669  0.59283  0.053669999999999995  1.0000
  C   C46       1.0  0.13688  0.38942  0.09843  1.0000
  C   C47       1.0  0.35597  0.81154  0.021559999999999992  1.0000
  C   C48       1.0  0.8537100000000001  0.60471  0.9131599999999999  1.0000
  C   C49       1.0  0.40191999999999983  0.10855  0.30622999999999995  1.0000
  C   C50       1.0  0.59422  0.89063  0.6957499999999999  1.0000
  C   C51       1.0  0.64411  0.07991  0.68466  1.0000
  C   C52       1.0  0.35622  0.9204499999999999  0.3161  1.0000
  C   C53       1.0  0.8577000000000001  0.58083  0.3168599999999999  1.0000
  C   C54       1.0  0.14058  0.41705  0.68303  1.0000
  C   C55       1.0  0.09465000000000003  0.60821  0.6951699999999998  1.0000
  C   C56       1.0  0.90907  0.38973  0.30186  1.0000
  C   C57       1.0  0.31787000000000004  0.1713  0.9753499999999998  1.0000
  C   C58       1.0  0.86282  0.69102  0.01063  1.0000
  C   C59       1.0  0.66012  0.81659  0.0533  1.0000
  C   C60       1.0  0.68712  0.17094  0.01855  1.0000
  C   C61       1.0  0.3131100000000001  0.82868  0.9816699999999999  1.0000
  C   C62       1.0  0.82408  0.6738  0.96449  1.0000
  C   C63       1.0  0.15747  0.31603  0.057309999999999986  1.0000
  C   C64       1.0  0.20967999999999995  0.65123  0.978  1.0000
  C   C65       1.0  0.7896700000000001  0.34897  0.023579999999999993  1.0000
  C   C66       1.0  0.3059600000000002  0.8632000000000001  0.32217  1.0000
  C   C67       1.0  0.6904399999999999  0.14256  0.67697  1.0000
  C   C68       1.0  0.62079  0.81786  0.69166  1.0000
  C   C69       1.0  0.12604  0.30451  0.00155  1.0000
  C   C70       1.0  0.37557  0.18116  0.30873  1.0000
  C   C71       1.0  0.8903300000000001  0.31424  0.3005  1.0000
  C   C72       1.0  0.11712000000000002  0.68349  0.69309  1.0000
  C   C73       1.0  0.18905999999999998  0.35831  0.67701  1.0000
  C   C74       1.0  0.80699  0.63771  0.32419999999999993  1.0000
  C   C75       1.0  0.26646  0.19893  0.51453  1.0000
  C   C76       1.0  0.7148900000000001  0.79618  0.48004999999999987  1.0000
  C   C77       1.0  0.8275399999999999  0.15134  0.4668699999999999  1.0000
  C   C78       1.0  0.17799000000000006  0.85207  0.53744  1.0000
  C   C79       1.0  0.6893700000000001  0.64889  0.54258  1.0000
  C   C80       1.0  0.16184  0.67185  0.94578  1.0000
  C   C81       1.0  0.3135200000000001  0.34663000000000005  0.4665699999999999  1.0000
  C   C82       1.0  0.22269000000000005  0.70591  0.4832199999999999  1.0000
  C   C83       1.0  0.7754999999999999  0.2942  0.50327  1.0000
  C   C84       1.0  0.61918  0.70433  0.5686699999999999  1.0000
  C   C85       1.0  0.37249000000000015  0.28096  0.44774999999999987  1.0000
  C   C86       1.0  0.28251  0.7714  0.46404  1.0000
  C   C87       1.0  0.7201  0.22483  0.52099  1.0000
  C   C88       1.0  0.20792999999999998  0.26371  0.53229  1.0000
  C   C89       1.0  0.78395  0.74171  0.45653999999999995  1.0000
  C   C90       1.0  0.8820200000000002  0.22183000000000003  0.44981999999999994  1.0000
  C   C91       1.0  0.8379  0.32867  0.055209999999999995  1.0000
  C   C92       1.0  0.11680999999999997  0.78611  0.55955  1.0000
  C   C93       1.0  0.65764  0.76615  0.59968  1.0000
  C   C94       1.0  0.33666999999999997  0.2319  0.40056  1.0000
  C   C95       1.0  0.24505000000000002  0.82222  0.4216999999999999  1.0000
  C   C96       1.0  0.75183  0.18378999999999998  0.57772  1.0000
  C   C97       1.0  0.24334  0.31358  0.57999  1.0000
  C   C98       1.0  0.74686  0.67932  0.4244699999999999  1.0000
  C   C99       1.0  0.8510499999999999  0.26193  0.39154  1.0000
  C   C100      1.0  0.15533000000000002  0.7362  0.60113  1.0000
  C   C101      1.0  0.47707  0.73334  0.69607  1.0000
  C   C102      1.0  0.3027200000000001  0.24783  0.56096  1.0000
  C   C103      1.0  0.51584  0.27075  0.30529  1.0000
  C   C104      1.0  0.41370000000000007  0.71269  0.34434  1.0000
  C   C105      1.0  0.58947  0.17857  0.57007  1.0000
  C   C106      1.0  0.06228999999999997  0.24980999999999998  0.67312  1.0000
  C   C107      1.0  0.88832  0.81678  0.43784  1.0000
  C   C108      1.0  0.007590000000000013  0.28032  0.39175  1.0000
  C   C109      1.0  0.98683  0.7368700000000001  0.62  1.0000
  C   C110      1.0  0.18431000000000003  0.10190000000000002  0.64017  1.0000
  C   C111      1.0  0.7745300000000002  0.88495  0.34044999999999986  1.0000
  C   C112      1.0  0.91719  0.057269999999999995  0.34481  1.0000
  H   H1        1.0  0.35422  0.24094999999999997  0.05971  1.0000
  H   H2        1.0  0.6596000000000001  0.23135  0.7961899999999998  1.0000
  H   H3        1.0  0.07359  0.8115100000000001  0.41714  1.0000
  H   H4        1.0  0.12566  0.77039  0.28527  1.0000
  H   H5        1.0  0.9145  0.24327  0.61386  1.0000
  H   H6        1.0  0.8200800000000001  0.18325  0.69103  1.0000
  H   H7        1.0  0.82892  0.26653  0.7512499999999999  1.0000
  H   H8        1.0  0.3480800000000001  0.61656  0.9263799999999998  1.0000
  H   H9        1.0  0.65109  0.38262  0.07468  1.0000
  H   H10       1.0  0.8271800000000001  0.71115  0.8096599999999998  1.0000
  H   H11       1.0  0.19069000000000003  0.1842  0.16887999999999997  1.0000
  H   H12       1.0  0.8246  0.1379  0.9696799999999998  1.0000
  H   H13       1.0  0.6118999999999999  0.74841  0.81679  1.0000
  H   H14       1.0  0.17522  0.86198  0.03232  1.0000
  H   H15       1.0  0.34368  0.22801  0.81349  1.0000
  H   H16       1.0  0.69883  0.68702  0.16116  1.0000
  H   H17       1.0  0.3882500000000001  0.25105  0.18153  1.0000
  H   H18       1.0  0.90211  0.24602  0.17350999999999997  1.0000
  H   H19       1.0  0.10573000000000003  0.75331  0.81941  1.0000
  H   H20       1.0  0.16693000000000005  0.2772  0.80091  1.0000
  H   H21       1.0  0.8304  0.72196  0.20317  1.0000
  H   H22       1.0  0.39175  0.94115  0.78809  1.0000
  H   H23       1.0  0.61056  0.05003  0.20688999999999994  1.0000
  H   H24       1.0  0.67851  0.88484  0.18207999999999996  1.0000
  H   H25       1.0  0.6234100000000002  0.75172  0.96626  1.0000
  H   H26       1.0  0.40729  0.0632  0.77621  1.0000
  H   H27       1.0  0.8774600000000002  0.42984000000000006  0.8011799999999998  1.0000
  H   H28       1.0  0.1242  0.55607  0.19424  1.0000
  H   H29       1.0  0.17406  0.38408  0.18706  1.0000
  H   H30       1.0  0.90585  0.5512  0.7798199999999997  1.0000
  H   H31       1.0  0.4702700000000001  0.04612  0.32499  1.0000
  H   H32       1.0  0.5329099999999999  0.9615499999999999  0.67343  1.0000
  H   H33       1.0  0.7136700000000001  0.04834000000000001  0.5337699999999999  1.0000
  H   H34       1.0  0.40511  0.93759  0.38791  1.0000
  H   H35       1.0  0.90956  0.56044  0.3836  1.0000
  H   H36       1.0  0.64702  0.24141  0.94133  1.0000
  H   H37       1.0  0.08398999999999998  0.44338  0.62379  1.0000
  H   H38       1.0  0.08654000000000009  0.61355  0.57739  1.0000
  H   H39       1.0  0.9788400000000002  0.45558  0.31550999999999996  1.0000
  H   H40       1.0  0.48825000000000013  0.79013  0.65718  1.0000
  H   H41       1.0  0.47845000000000004  0.73791  0.7663499999999998  1.0000
  H   H42       1.0  0.41261  0.71443  0.72735  1.0000
  H   H43       1.0  0.50188  0.29376  0.25096  1.0000
  H   H44       1.0  0.52112  0.2074  0.29952999999999996  1.0000
  H   H45       1.0  0.57839  0.29385  0.27641  1.0000
  H   H46       1.0  0.48230000000000006  0.72231  0.30179  1.0000
  H   H47       1.0  0.35577  0.7575  0.055139999999999995  1.0000
  H   H48       1.0  0.404  0.71198  0.28118  1.0000
  H   H49       1.0  0.39701  0.65663  0.3868599999999999  1.0000
  H   H50       1.0  0.54294  0.16143  0.65648  1.0000
  H   H51       1.0  0.6284300000000003  0.12882  0.52104  1.0000
  H   H52       1.0  0.5530100000000001  0.19572  0.5408199999999999  1.0000
  H   H53       1.0  0.03342000000000002  0.30725  0.70197  1.0000
  H   H54       1.0  0.08342000000000012  0.22891999999999998  0.7203399999999998  1.0000
  H   H55       1.0  0.011699999999999985  0.2101  0.69019  1.0000
  H   H56       1.0  0.8666700000000002  0.80221  0.52087  1.0000
  H   H57       1.0  0.8595499999999998  0.8715  0.43935  1.0000
  H   H58       1.0  0.8642899999999999  0.7461  0.04167  1.0000
  H   H59       1.0  0.9576899999999999  0.82631  0.38663  1.0000
  H   H60       1.0  0.96912  0.32376  0.45652999999999994  1.0000
  H   H61       1.0  0.028110000000000027  0.30179  0.31181999999999993  1.0000
  H   H62       1.0  0.06526  0.27091  0.38576999999999995  1.0000
  H   H63       1.0  0.97236  0.70021  0.6877899999999998  1.0000
  H   H64       1.0  0.02056  0.70366  0.54321  1.0000
  H   H65       1.0  0.92655  0.75518  0.6375  1.0000
  H   H66       1.0  0.12164000000000001  0.10228  0.65729  1.0000
  H   H67       1.0  0.18405000000000016  0.1403  0.6977799999999997  1.0000
  H   H68       1.0  0.19484000000000004  0.04287  0.65592  1.0000
  H   H69       1.0  0.11979000000000001  0.25023  0.9729  1.0000
  H   H70       1.0  0.78904  0.94691  0.32182999999999995  1.0000
  H   H71       1.0  0.7392599999999999  0.8668900000000002  0.30956  1.0000
  H   H72       1.0  0.83576  0.85424  0.29636  1.0000
  H   H73       1.0  0.96444  0.10407  0.29789  1.0000
  H   H74       1.0  0.88625  0.04219  0.30705999999999994  1.0000
  H   H75       1.0  0.95222  0.00594  0.3391099999999999  1.0000
  H   H76       1.0  0.08808  0.92874  0.50497  1.0000
  H   H77       1.0  0.18960999999999997  0.9788699999999999  0.42689  1.0000
  H   H78       1.0  0.09950000000000005  0.01874  0.54994  1.0000
  H   H79       1.0  0.5529200000000003  0.56132  0.7017299999999997  1.0000
  H   H80       1.0  0.17374999999999996  0.71866  0.89268  1.0000
  H   H81       1.0  0.62221  0.60055  0.73089  1.0000
  H   H82       1.0  0.62465  0.5007  0.7021  1.0000
  H   H83       1.0  0.40447000000000005  0.41081  0.28241  1.0000
  H   H84       1.0  0.4623400000000001  0.42482000000000003  0.3382399999999999  1.0000
  H   H85       1.0  0.41034000000000004  0.50296  0.32930999999999994  1.0000
  H   H86       1.0  0.29681000000000013  0.6448  0.2982099999999999  1.0000
  H   H87       1.0  0.19763000000000006  0.59063  0.38356999999999997  1.0000
  H   H88       1.0  0.29589000000000004  0.54946  0.3385699999999999  1.0000
  H   H89       1.0  0.63848  0.39386  0.5506899999999999  1.0000
  H   H90       1.0  0.7216200000000002  0.35768  0.41621  1.0000
  H   H91       1.0  0.8261900000000001  0.28242  0.10857999999999997  1.0000
  H   H92       1.0  0.72745  0.45274  0.45161  1.0000
  H   H93       1.0  0.43227  0.17763  0.52206  1.0000
  H   H94       1.0  0.34287  0.11134  0.59236  1.0000
  H   H95       1.0  0.38210000000000016  0.15164  0.6596799999999998  1.0000
  H   H96       1.0  0.58216  0.83709  0.46744999999999987  1.0000
  H   H97       1.0  0.5259  0.74893  0.48074999999999996  1.0000
  H   H98       1.0  0.5796000000000001  0.80534  0.3599199999999999  1.0000
  H   H99       1.0  0.731  0.24714999999999998  0.32907  1.0000
  H   H100      1.0  0.68263  0.15325  0.35032  1.0000
  H   H101      1.0  0.7743500000000002  0.17869  0.22091  1.0000
  H   H102      1.0  0.33197000000000004  0.77525  0.20519999999999994  1.0000
  H   H103      1.0  0.35270999999999997  0.8126  0.58651  1.0000
  H   H104      1.0  0.2843400000000001  0.72761  0.6432799999999999  1.0000
  H   H105      1.0  0.27824  0.79997  0.73009  1.0000
  H   H106      1.0  0.8705400000000001  0.65879  0.52044  1.0000
  H   H107      1.0  0.78772  0.58737  0.60607  1.0000
  H   H108      1.0  0.8316700000000002  0.64291  0.6574399999999998  1.0000
  H   H109      1.0  0.23326999999999998  0.43039  0.39508  1.0000
  H   H110      1.0  0.1471  0.36200000000000004  0.44321  1.0000
  H   H111      1.0  0.21122000000000005  0.39655  0.30652999999999997  1.0000
  H   H112      1.0  0.18009000000000006  0.84148  0.30493999999999993  1.0000
  N   N1        1.0  0.40868  0.13081  0.9957799999999999  1.0000
  N   N2        1.0  0.5785900000000002  0.13279  0.84638  1.0000
  N   N3        1.0  0.57859  0.86721  0.84638  1.0000
  N   N4        1.0  0.42141  0.13279  0.15361999999999998  1.0000
  N   N5        1.0  0.92141  0.36721  0.15361999999999998  1.0000
  N   N6        1.0  0.07858999999999998  0.63279  0.84638  1.0000
  N   N7        1.0  0.07859000000000002  0.36721  0.84638  1.0000
  N   N8        1.0  0.92141  0.63279  0.15361999999999998  1.0000
  N   N9        1.0  0.40383999999999987  0.9219099999999999  0.93576  1.0000
  N   N10       1.0  0.59616  0.07809  0.06423999999999999  1.0000
  N   N11       1.0  0.59616  0.9219099999999999  0.06423999999999999  1.0000
  N   N12       1.0  0.59132  0.86919  0.00422  1.0000
  N   N13       1.0  0.40383999999999987  0.07809  0.93576  1.0000
  N   N14       1.0  0.90384  0.42191  0.93576  1.0000
  N   N15       1.0  0.09616000000000004  0.57809  0.06423999999999999  1.0000
  N   N16       1.0  0.09616  0.42191  0.06423999999999999  1.0000
  N   N17       1.0  0.90384  0.57809  0.93576  1.0000
  N   N18       1.0  0.42624999999999996  0.0761  0.21364999999999995  1.0000
  N   N19       1.0  0.57375  0.9239  0.78635  1.0000
  N   N20       1.0  0.57375  0.0761  0.78635  1.0000
  N   N21       1.0  0.42624999999999996  0.9239  0.21364999999999995  1.0000
  N   N22       1.0  0.9262500000000002  0.5761  0.21364999999999995  1.0000
  N   N23       1.0  0.59132  0.13081  0.00422  1.0000
  N   N24       1.0  0.07374999999999997  0.4239  0.78635  1.0000
  N   N25       1.0  0.07374999999999995  0.5761  0.78635  1.0000
  N   N26       1.0  0.9262500000000002  0.4239  0.21364999999999995  1.0000
  N   N27       1.0  0.4086800000000001  0.86919  0.9957799999999999  1.0000
  N   N28       1.0  0.9086800000000003  0.63081  0.9957799999999999  1.0000
  N   N29       1.0  0.09132  0.36919  0.00422  1.0000
  N   N30       1.0  0.09132  0.63081  0.00422  1.0000
  N   N31       1.0  0.9086800000000003  0.36919  0.9957799999999999  1.0000
  N   N32       1.0  0.42141  0.86721  0.15361999999999998  1.0000
  Ni  Ni1       1.0  0.5  0.13157  0.0  1.0000
  Ni  Ni2       1.0  0.5  0.86843  0.0  1.0000
  Ni  Ni3       1.0  0.0  0.63157  0.0  1.0000
  Ni  Ni4       1.0  0.0  0.36843  0.0  1.0000
  Ni  Ni5       1.0  0.48889999999999983  0.0  0.86231  1.0000
  Ni  Ni6       1.0  0.5111  0.0  0.13769  1.0000
  Ni  Ni7       1.0  0.9889  0.5  0.86231  1.0000
  Ni  Ni8       1.0  0.011100000000000004  0.5  0.13769  1.0000
  O   O1        1.0  0.33624000000000004  0.92021  0.84882  1.0000
  O   O2        1.0  0.56594  0.91417  0.63844  1.0000
  O   O3        1.0  0.6607699999999999  0.0324  0.6032  1.0000
  O   O4        1.0  0.34945  0.9470000000000001  0.40435  1.0000
  O   O5        1.0  0.8524000000000002  0.55348  0.40336  1.0000
  O   O6        1.0  0.14348000000000002  0.44182  0.5972499999999998  1.0000
  O   O7        1.0  0.07090000000000002  0.57737  0.63577  1.0000
  O   O8        1.0  0.93397  0.41687  0.36149  1.0000
  O   O9        1.0  0.53516  0.67829  0.62168  1.0000
  O   O10       1.0  0.45554  0.29353  0.41386999999999996  1.0000
  O   O11       1.0  0.36926  0.77242  0.41929  1.0000
  O   O12       1.0  0.6624800000000001  0.07928  0.15265  1.0000
  O   O13       1.0  0.63595  0.24265000000000003  0.56291  1.0000
  O   O14       1.0  0.12648999999999996  0.25173  0.56002  1.0000
  O   O15       1.0  0.87187  0.75684  0.39164999999999994  1.0000
  O   O16       1.0  0.96497  0.20981  0.4154899999999999  1.0000
  O   O17       1.0  0.030899999999999993  0.80304  0.61224  1.0000
  O   O18       1.0  0.24799  0.11938  0.52976  1.0000
  O   O19       1.0  0.72518  0.87513  0.4539799999999999  1.0000
  O   O20       1.0  0.85598  0.07526  0.45553  1.0000
  O   O21       1.0  0.15442000000000003  0.9289600000000001  0.57086  1.0000
  O   O22       1.0  0.6795200000000001  0.57003  0.56803  1.0000
  O   O23       1.0  0.64316  0.91938  0.17458999999999994  1.0000
  O   O24       1.0  0.33144000000000007  0.42617  0.4514599999999999  1.0000
  O   O25       1.0  0.24725000000000003  0.62796  0.4615699999999999  1.0000
  O   O26       1.0  0.75059  0.372  0.52672  1.0000
  O   O27       1.0  0.31339  0.22608  0.63957  1.0000
  O   O28       1.0  0.65672  0.7414600000000001  0.37732999999999994  1.0000
  O   O29       1.0  0.7951  0.15107  0.33094  1.0000
  O   O30       1.0  0.22711000000000003  0.8324  0.65435  1.0000
  O   O31       1.0  0.7505199999999999  0.70167  0.64278  1.0000
  O   O32       1.0  0.2693700000000001  0.31853  0.3387999999999999  1.0000
  O   O33       1.0  0.1687800000000001  0.73194  0.36824  1.0000
  O   O34       1.0  0.35011999999999993  0.08334  0.83318  1.0000
  O   O35       1.0  0.80808  0.29092  0.63997  1.0000
  O   O36       1.0  0.34724  0.67255  0.93876  1.0000
  O   O37       1.0  0.65226  0.3266  0.06228  1.0000
  O   O38       1.0  0.7825799999999999  0.74416  0.86834  1.0000
  O   O39       1.0  0.17847000000000002  0.23902000000000004  0.16790999999999998  1.0000
  O   O40       1.0  0.8219800000000003  0.19356000000000004  0.9849199999999998  1.0000
  O   O41       1.0  0.17769  0.80632  0.01713  1.0000
  O   O42       1.0  0.28738  0.24864000000000003  0.87278  1.0000
  O   O43       1.0  0.68704  0.7419100000000001  0.1597  1.0000
  O   O44       1.0  0.8203600000000001  0.4237  0.87133  1.0000
  O   O45       1.0  0.17989  0.57293  0.12794  1.0000
  O   O46       1.0  0.14140000000000003  0.41989  0.17643999999999996  1.0000
  O   O47       1.0  0.8526800000000001  0.57977  0.8300599999999999  1.0000
  O   O48       1.0  0.42669  0.08574  0.36750999999999995  1.0000
