data_image0
_chemical_formula_structural       C64H18N4O16Zn4CNCNCl2CNCNCl8CNCNCNCN
_chemical_formula_sum              "C72 H18 N12 O16 Zn4 Cl10"
_cell_length_a       14.93011
_cell_length_b       15.55318
_cell_length_c       9.89887
_cell_angle_alpha    89.32138
_cell_angle_beta     92.83571999999998
_cell_angle_gamma    90.24724000000002

_symmetry_space_group_name_H-M    'P 1'
_symmetry_Int_Tables_number       1

loop_
  _symmetry_equiv_pos_as_xyz
  'x,y,z'

loop_
  _atom_site_type_symbol
  _atom_site_label
  _atom_site_symmetry_multiplicity
  _atom_site_fract_x
  _atom_site_fract_y
  _atom_site_fract_z
  _atom_site_occupancy
  C   C1        1.0  0.38724  0.87398  0.49842  1.0000
  C   C2        1.0  0.38849  0.12657999999999994  0.4984700000000001  1.0000
  C   C3        1.0  0.88723  0.37398  0.49843000000000004  1.0000
  C   C4        1.0  0.88849  0.6265799999999998  0.4984700000000001  1.0000
  C   C5        1.0  0.2804  0.2184  0.37922  1.0000
  C   C6        1.0  0.26836  0.7933099999999997  0.3817  1.0000
  C   C7        1.0  0.7804  0.7184099999999998  0.37922  1.0000
  C   C8        1.0  0.76837  0.29331  0.38167  1.0000
  C   C9        1.0  0.70798  0.77207  0.38188  1.0000
  C   C10       1.0  0.69422  0.24128  0.38799  1.0000
  C   C11       1.0  0.20797  0.2720599999999999  0.38188  1.0000
  C   C12       1.0  0.19418  0.74132  0.38805000000000006  1.0000
  C   C13       1.0  0.68458  0.8083999999999998  0.50619  1.0000
  C   C14       1.0  0.68002  0.19464  0.50816  1.0000
  C   C15       1.0  0.18457  0.30839  0.5062000000000001  1.0000
  C   C16       1.0  0.18002  0.6946399999999998  0.50819  1.0000
  C   C17       1.0  0.33007  0.03301  0.10973  1.0000
  C   C18       1.0  0.83008  0.53301  0.10974000000000002  1.0000
  C   C19       1.0  0.26307  0.0664  0.01488  1.0000
  C   C20       1.0  0.7630799999999999  0.56642  0.0149  1.0000
  C   C21       1.0  0.27406  0.05656999999999999  0.8764600000000001  1.0000
  C   C22       1.0  0.77406  0.5565899999999998  0.8764700000000001  1.0000
  C   C23       1.0  0.34031  0.0011600000000000002  0.84162  1.0000
  C   C24       1.0  0.84031  0.50118  0.84163  1.0000
  C   C25       1.0  0.42037  0.00398  0.9196100000000001  1.0000
  C   C26       1.0  0.92037  0.50399  0.9196100000000001  1.0000
  C   C27       1.0  0.41822  0.01079  0.0633  1.0000
  C   C28       1.0  0.9182199999999999  0.51079  0.0633  1.0000
  C   C29       1.0  0.57681  0.9927999999999998  0.07822  1.0000
  C   C30       1.0  0.07681  0.4928  0.07822  1.0000
  C   C31       1.0  0.61653  0.12379  0.50215  1.0000
  C   C32       1.0  0.61825  0.8772499999999998  0.50242  1.0000
  C   C33       1.0  0.11653  0.62379  0.50216  1.0000
  C   C34       1.0  0.11825  0.37724  0.50242  1.0000
  C   C35       1.0  0.57709  0.9948799999999998  0.9351300000000001  1.0000
  C   C36       1.0  0.07708999999999999  0.4948799999999999  0.9351300000000001  1.0000
  C   C37       1.0  0.38263  0.25181  0.72671  1.0000
  C   C38       1.0  0.393  0.72944  0.70191  1.0000
  C   C39       1.0  0.88263  0.7518  0.7267300000000001  1.0000
  C   C40       1.0  0.89298  0.22945  0.70194  1.0000
  C   C41       1.0  0.35552  0.27194  0.85515  1.0000
  C   C42       1.0  0.37584  0.69614  0.82945  1.0000
  C   C43       1.0  0.85551  0.77193  0.8551600000000001  1.0000
  C   C44       1.0  0.87582  0.19612999999999994  0.82949  1.0000
  C   C45       1.0  0.76649  0.7916399999999998  0.8730300000000001  1.0000
  C   C46       1.0  0.78816  0.17746999999999996  0.8605  1.0000
  C   C47       1.0  0.2665  0.2916399999999999  0.87302  1.0000
  C   C48       1.0  0.28819  0.67746  0.8604700000000001  1.0000
  C   C49       1.0  0.7072299999999998  0.80143  0.76061  1.0000
  C   C50       1.0  0.72015  0.1807  0.75858  1.0000
  C   C51       1.0  0.20724  0.30142999999999986  0.76061  1.0000
  C   C52       1.0  0.22018  0.6806899999999998  0.7585700000000001  1.0000
  C   C53       1.0  0.73525  0.78677  0.62785  1.0000
  C   C54       1.0  0.73879  0.20622  0.62464  1.0000
  C   C55       1.0  0.23525  0.28676  0.62785  1.0000
  C   C56       1.0  0.23882  0.7062  0.62464  1.0000
  C   C57       1.0  0.31873  0.24742999999999996  0.61605  1.0000
  C   C58       1.0  0.32174  0.7451399999999998  0.60569  1.0000
  C   C59       1.0  0.81873  0.74743  0.61606  1.0000
  C   C60       1.0  0.8217199999999999  0.24515999999999993  0.60571  1.0000
  C   C61       1.0  0.3333499999999999  0.20274  0.49587  1.0000
  C   C62       1.0  0.32937  0.79927  0.49233000000000005  1.0000
  C   C63       1.0  0.83336  0.70275  0.49587  1.0000
  C   C64       1.0  0.82936  0.29929  0.49233000000000005  1.0000
  H   H1        1.0  0.29332  0.18652  0.28556  1.0000
  H   H2        1.0  0.27626  0.83139  0.29094  1.0000
  H   H3        1.0  0.79332  0.68653  0.28556  1.0000
  H   H4        1.0  0.77629  0.33139  0.29089  1.0000
  H   H5        1.0  0.40355  0.2732  0.94074  1.0000
  H   H6        1.0  0.43009  0.6853399999999998  0.90437  1.0000
  H   H7        1.0  0.90354  0.7731899999999998  0.94077  1.0000
  H   H8        1.0  0.93007  0.18532  0.9044200000000001  1.0000
  H   H9        1.0  0.74445  0.80446  0.97325  1.0000
  H   H10       1.0  0.77342  0.15623  0.96161  1.0000
  H   H11       1.0  0.24446  0.30447  0.97324  1.0000
  H   H12       1.0  0.27346  0.65624  0.96157  1.0000
  H   H13       1.0  0.63983  0.81835  0.78227  1.0000
  H   H14       1.0  0.65375  0.16561999999999996  0.7891400000000001  1.0000
  H   H15       1.0  0.13984  0.31836  0.78227  1.0000
  H   H16       1.0  0.15379  0.6656  0.78913  1.0000
  H   H17       1.0  0.63932  0.98724  0.13792  1.0000
  H   H18       1.0  0.13932  0.48723  0.13792  1.0000
  N   N1        1.0  0.49881  0.9999999999999998  0.14278  1.0000
  N   N2        1.0  0.9988099999999999  0.4999999999999999  0.14278  1.0000
  N   N3        1.0  0.49874  0.0  0.85717  1.0000
  N   N4        1.0  0.99874  0.4999999999999999  0.85717  1.0000
  O   O1        1.0  0.40839  0.90838  0.61469  1.0000
  O   O2        1.0  0.40839  0.09162  0.61469  1.0000
  O   O3        1.0  0.90839  0.4083799999999999  0.61469  1.0000
  O   O4        1.0  0.90839  0.59162  0.61469  1.0000
  O   O5        1.0  0.40837  0.90838  0.38536000000000004  1.0000
  O   O6        1.0  0.40837  0.09162  0.38536000000000004  1.0000
  O   O7        1.0  0.90837  0.4083799999999999  0.38536000000000004  1.0000
  O   O8        1.0  0.90837  0.59162  0.38536000000000004  1.0000
  O   O9        1.0  0.59162  0.09161  0.6146400000000001  1.0000
  O   O10       1.0  0.59162  0.9083899999999998  0.6146400000000001  1.0000
  O   O11       1.0  0.09162  0.59161  0.6146400000000001  1.0000
  O   O12       1.0  0.09162  0.40839  0.6146400000000001  1.0000
  O   O13       1.0  0.59161  0.09161  0.38531  1.0000
  O   O14       1.0  0.59161  0.9083899999999998  0.38531  1.0000
  O   O15       1.0  0.09160999999999998  0.59161  0.38531  1.0000
  O   O16       1.0  0.09160999999999998  0.40839  0.38531  1.0000
  Zn  Zn1       1.0  0.50001  0.9999999999999998  0.65313  1.0000
  Zn  Zn2       1.0  1.0000000000000387e-05  0.4999999999999999  0.65313  1.0000
  Zn  Zn3       1.0  0.49998  0.0  0.34687  1.0000
  Zn  Zn4       1.0  0.99998  0.4999999999999999  0.34687  1.0000
  C   C65       1.0  0.20275  0.07465  0.77608  1.0000
  N   N5        1.0  0.14609  0.08795999999999997  0.69476  1.0000
  C   C66       1.0  0.70275  0.57467  0.7761000000000001  1.0000
  N   N6        1.0  0.64608  0.5879699999999998  0.69479  1.0000
  Cl  Cl1       1.0  0.29424  0.8974599999999998  0.82383  1.0000
  Cl  Cl2       1.0  0.79423  0.3974799999999999  0.82382  1.0000
  C   C67       1.0  0.66146  0.99121  0.8721600000000002  1.0000
  N   N7        1.0  0.72979  0.98845  0.82212  1.0000
  C   C68       1.0  0.16145  0.49121  0.8721600000000002  1.0000
  N   N8        1.0  0.22979000000000002  0.48844  0.8221300000000001  1.0000
  Cl  Cl3       1.0  0.49817  0.25133  0.70327  1.0000
  Cl  Cl4       1.0  0.50386  0.7327399999999997  0.65547  1.0000
  Cl  Cl5       1.0  0.99817  0.75132  0.7033  1.0000
  Cl  Cl6       1.0  0.003850000000000005  0.23274  0.6555100000000001  1.0000
  Cl  Cl7       1.0  0.64657  0.7844899999999998  0.22546  1.0000
  Cl  Cl8       1.0  0.6171299999999998  0.24459  0.24641  1.0000
  Cl  Cl9       1.0  0.14658  0.2845  0.22546  1.0000
  Cl  Cl10      1.0  0.11693  0.74477  0.24664  1.0000
  C   C69       1.0  0.29354  0.008760000000000002  0.23654  1.0000
  N   N9        1.0  0.25744  0.9928099999999997  0.33478  1.0000
  C   C70       1.0  0.79353  0.50872  0.23653000000000002  1.0000
  N   N10       1.0  0.75743  0.4927299999999999  0.33473  1.0000
  C   C71       1.0  0.17555  0.09333  0.05668  1.0000
  N   N11       1.0  0.10506  0.11302  0.08848  1.0000
  C   C72       1.0  0.67556  0.59333  0.05670000000000001  1.0000
  N   N12       1.0  0.60506  0.6130199999999998  0.08851  1.0000
