data_image0
_chemical_formula_structural       C56H26N6O12Zn2
_chemical_formula_sum              "C56 H26 N6 O12 Zn2"
_cell_length_a       7.73963
_cell_length_b       8.54045
_cell_length_c       27.6626
_cell_angle_alpha    90.91834
_cell_angle_beta     86.05727999999999
_cell_angle_gamma    93.86419

_symmetry_space_group_name_H-M    'P 1'
_symmetry_Int_Tables_number       1

loop_
  _symmetry_equiv_pos_as_xyz
  'x,y,z'

loop_
  _atom_site_type_symbol
  _atom_site_label
  _atom_site_symmetry_multiplicity
  _atom_site_fract_x
  _atom_site_fract_y
  _atom_site_fract_z
  _atom_site_occupancy
  C   C1        1.0  0.54602  0.7948700000000002  0.49873  1.0000
  C   C2        1.0  0.6345899999999998  0.56112  0.1264  1.0000
  C   C3        1.0  0.5100699999999998  0.50434  0.64601  1.0000
  C   C4        1.0  0.48971000000000003  0.49437  0.354  1.0000
  C   C5        1.0  0.6502599999999997  0.5511300000000002  0.023980000000000005  1.0000
  C   C6        1.0  0.3497199999999999  0.4414400000000001  0.9759800000000002  1.0000
  C   C7        1.0  0.34238  0.4494700000000001  0.02731  1.0000
  C   C8        1.0  0.6576  0.5430800000000002  0.97265  1.0000
  C   C9        1.0  0.49294000000000004  0.5036  0.05095  1.0000
  C   C10       1.0  0.50699  0.48913  0.94901  1.0000
  C   C11       1.0  0.7951899999999997  0.6059600000000003  0.04957  1.0000
  C   C12       1.0  0.4539799999999998  0.20513  0.50127  1.0000
  C   C13       1.0  0.20478000000000002  0.38668  0.95038  1.0000
  C   C14       1.0  0.78724  0.61016  0.09972000000000002  1.0000
  C   C15       1.0  0.21255999999999994  0.38301  0.9002300000000001  1.0000
  C   C16       1.0  0.5029799999999998  0.5016  0.5937  1.0000
  C   C17       1.0  0.49700999999999995  0.4983  0.4063  1.0000
  C   C18       1.0  0.81111  0.5870100000000003  0.9438300000000002  1.0000
  C   C19       1.0  0.18887  0.40556  0.05613  1.0000
  C   C20       1.0  0.5702800000000001  0.9584800000000001  0.49793  1.0000
  C   C21       1.0  0.42971999999999994  0.04152  0.50206  1.0000
  C   C22       1.0  0.67022  0.5276  0.81975  1.0000
  C   C23       1.0  0.51347  0.48356000000000005  0.89768  1.0000
  C   C24       1.0  0.32921  0.4667  0.18022  1.0000
  C   C25       1.0  0.37232  0.43392  0.82296  1.0000
  C   C26       1.0  0.6271  0.56042  0.177  1.0000
  C   C27       1.0  0.59772  0.3802100000000001  0.7171700000000001  1.0000
  C   C28       1.0  0.4018  0.61667  0.28256  1.0000
  C   C29       1.0  0.59259  0.3849  0.6673100000000002  1.0000
  C   C30       1.0  0.40728999999999976  0.61334  0.33243  1.0000
  C   C31       1.0  0.43661999999999995  0.6242000000000002  0.6747000000000001  1.0000
  C   C32       1.0  0.5626  0.37359  0.32559  1.0000
  C   C33       1.0  0.44455  0.62105  0.7253200000000002  1.0000
  C   C34       1.0  0.4862999999999999  0.50964  0.10228  1.0000
  C   C35       1.0  0.55427  0.37537  0.27497  1.0000
  C   C36       1.0  0.52309  0.49629  0.74613  1.0000
  C   C37       1.0  0.47594  0.49968  0.25388  1.0000
  C   C38       1.0  0.36192  0.7537400000000002  0.65219  1.0000
  C   C39       1.0  0.63722  0.24456  0.3483900000000001  1.0000
  C   C40       1.0  0.37206  0.74671  0.75671  1.0000
  C   C41       1.0  0.48234  0.84972  0.78251  1.0000
  C   C42       1.0  0.41334  0.9666700000000001  0.81253  1.0000
  C   C43       1.0  0.23413999999999996  0.98127  0.81703  1.0000
  C   C44       1.0  0.12376000000000005  0.8797600000000002  0.79126  1.0000
  C   C45       1.0  0.66806  0.53002  0.8703  1.0000
  C   C46       1.0  0.19237  0.76308  0.76107  1.0000
  C   C47       1.0  0.6262299999999997  0.24879000000000004  0.24386  1.0000
  C   C48       1.0  0.80593  0.23252  0.23929  1.0000
  C   C49       1.0  0.87404  0.1151  0.20930000000000007  1.0000
  C   C50       1.0  0.7631599999999997  0.012740000000000001  0.18397  1.0000
  C   C51       1.0  0.58395  0.02721000000000001  0.18871  1.0000
  C   C52       1.0  0.5154499999999999  0.14493000000000006  0.21851  1.0000
  C   C53       1.0  0.33162999999999987  0.46345  0.12967  1.0000
  C   C54       1.0  0.81581  0.58042  0.89372  1.0000
  C   C55       1.0  0.18402  0.41261000000000003  0.10624  1.0000
  C   C56       1.0  0.3650699999999999  0.43242  0.8735600000000001  1.0000
  H   H1        1.0  0.013930000000000001  0.38285  0.46345  1.0000
  H   H2        1.0  0.09736000000000002  0.3417600000000001  0.88242  1.0000
  H   H3        1.0  0.9182699999999998  0.6466500000000002  0.03226  1.0000
  H   H4        1.0  0.08176999999999995  0.34579  0.96769  1.0000
  H   H5        1.0  0.93141  0.62746  0.9585100000000002  1.0000
  H   H6        1.0  0.06865  0.36487000000000014  0.04145000000000001  1.0000
  H   H7        1.0  0.70286  0.009980000000000004  0.4939300000000001  1.0000
  H   H8        1.0  0.29714  0.99002  0.50606  1.0000
  H   H9        1.0  0.62141  0.83991  0.77918  1.0000
  H   H10       1.0  0.4987199999999998  0.046  0.83229  1.0000
  H   H11       1.0  0.1808299999999999  0.07132000000000001  0.8404200000000002  1.0000
  H   H12       1.0  0.9860600000000002  0.61715  0.53655  1.0000
  H   H13       1.0  0.9850399999999999  0.89145  0.7947  1.0000
  H   H14       1.0  0.10589999999999998  0.68497  0.74125  1.0000
  H   H15       1.0  0.89277  0.31131  0.25877  1.0000
  H   H16       1.0  0.012760000000000002  0.10352  0.20567  1.0000
  H   H17       1.0  0.81609  0.92213  0.16073  1.0000
  H   H18       1.0  0.49818999999999997  0.94722  0.16929  1.0000
  H   H19       1.0  0.37638999999999995  0.15472000000000005  0.22201  1.0000
  H   H20       1.0  0.9361999999999997  0.61651  0.87335  1.0000
  H   H21       1.0  0.06359  0.37664  0.12661  1.0000
  H   H22       1.0  0.35066999999999987  0.7058  0.35425  1.0000
  H   H23       1.0  0.64958  0.29311  0.64528  1.0000
  H   H24       1.0  0.34193  0.71148  0.26594  1.0000
  H   H25       1.0  0.6578  0.28509  0.73356  1.0000
  H   H26       1.0  0.90237  0.65162  0.11753  1.0000
  N   N1        1.0  0.52247  0.4840400000000001  0.79744  1.0000
  N   N2        1.0  0.4768  0.51079  0.20253  1.0000
  N   N3        1.0  0.95032  0.4579600000000001  0.48688  1.0000
  N   N4        1.0  0.04968000000000002  0.5420400000000002  0.51312  1.0000
  N   N5        1.0  0.30245999999999995  0.8571500000000001  0.6342  1.0000
  N   N6        1.0  0.6966099999999997  0.14155000000000004  0.3666  1.0000
  O   O1        1.0  0.38925  0.7385700000000001  0.50322  1.0000
  O   O2        1.0  0.18187999999999993  0.42366  0.20698000000000003  1.0000
  O   O3        1.0  0.76882  0.60746  0.20065  1.0000
  O   O4        1.0  0.23050999999999996  0.38719000000000003  0.7993100000000001  1.0000
  O   O5        1.0  0.61075  0.26143000000000005  0.49678  1.0000
  O   O6        1.0  0.6783900000000002  0.71163  0.49481  1.0000
  O   O7        1.0  0.3216099999999999  0.28837  0.50519  1.0000
  O   O8        1.0  0.3554399999999999  0.51344  0.57545  1.0000
  O   O9        1.0  0.64456  0.48656000000000005  0.42455  1.0000
  O   O10       1.0  0.6445899999999999  0.4865  0.56704  1.0000
  O   O11       1.0  0.35540999999999984  0.5135  0.4329600000000001  1.0000
  O   O12       1.0  0.81746  0.57098  0.79299  1.0000
  Zn  Zn1       1.0  0.3069399999999999  0.51799  0.50562  1.0000
  Zn  Zn2       1.0  0.69306  0.48201  0.49438  1.0000
