data_image0
_chemical_formula_structural       C176H32I64N16O52Zn16
_chemical_formula_sum              "C176 H32 I64 N16 O52 Zn16"
_cell_length_a       24.36788
_cell_length_b       24.36789
_cell_length_c       42.78443
_cell_angle_alpha    90.00005
_cell_angle_beta     90.00005
_cell_angle_gamma    90.0

_symmetry_space_group_name_H-M    'P 1'
_symmetry_Int_Tables_number       1

loop_
  _symmetry_equiv_pos_as_xyz
  'x,y,z'

loop_
  _atom_site_type_symbol
  _atom_site_label
  _atom_site_symmetry_multiplicity
  _atom_site_fract_x
  _atom_site_fract_y
  _atom_site_fract_z
  _atom_site_occupancy
  C   C1        1.0  0.77134  0.27134  0.25  1.0000
  C   C2        1.0  0.7713100000000003  0.72869  0.25  1.0000
  C   C3        1.0  0.39488  0.10512  0.25  1.0000
  C   C4        1.0  0.89488  0.39487999999999995  0.75  1.0000
  C   C5        1.0  0.10512  0.60512  0.25  1.0000
  C   C6        1.0  0.39488  0.10512  0.75  1.0000
  C   C7        1.0  0.6051200000000001  0.89488  0.25  1.0000
  C   C8        1.0  0.0  0.5  0.13149  1.0000
  C   C9        1.0  0.0  0.5  0.86851  1.0000
  C   C10       1.0  0.5  0.0  0.13149  1.0000
  C   C11       1.0  0.5  0.0  0.86851  1.0000
  C   C12       1.0  0.5  0.0  0.63149  1.0000
  C   C13       1.0  0.27131  0.77131  0.75  1.0000
  C   C14       1.0  0.5  0.0  0.36851  1.0000
  C   C15       1.0  0.0  0.5  0.63149  1.0000
  C   C16       1.0  0.0  0.5  0.36851  1.0000
  C   C17       1.0  0.7794200000000001  0.30405  0.27653  1.0000
  C   C18       1.0  0.22058  0.6959499999999998  0.72347  1.0000
  C   C19       1.0  0.69595  0.77942  0.27653  1.0000
  C   C20       1.0  0.30405  0.22057999999999997  0.72347  1.0000
  C   C21       1.0  0.22058  0.6959499999999998  0.27653  1.0000
  C   C22       1.0  0.7794200000000001  0.30405  0.72347  1.0000
  C   C23       1.0  0.30405  0.22057999999999997  0.27653  1.0000
  C   C24       1.0  0.72869  0.22869  0.25  1.0000
  C   C25       1.0  0.69595  0.77942  0.72347  1.0000
  C   C26       1.0  0.17521  0.25862  0.7596  1.0000
  C   C27       1.0  0.82479  0.7413799999999999  0.24039  1.0000
  C   C28       1.0  0.25862  0.8247899999999999  0.7596  1.0000
  C   C29       1.0  0.74138  0.17521  0.24039  1.0000
  C   C30       1.0  0.82479  0.7413799999999999  0.7596  1.0000
  C   C31       1.0  0.17521  0.25862  0.24039  1.0000
  C   C32       1.0  0.74138  0.17521  0.7596  1.0000
  C   C33       1.0  0.25862  0.8247899999999999  0.24039999999999997  1.0000
  C   C34       1.0  0.3247900000000001  0.75862  0.7403999999999998  1.0000
  C   C35       1.0  0.7713100000000003  0.72869  0.75  1.0000
  C   C36       1.0  0.6752100000000002  0.24138  0.2596  1.0000
  C   C37       1.0  0.24138000000000007  0.32479  0.74039  1.0000
  C   C38       1.0  0.7586200000000002  0.67521  0.2596  1.0000
  C   C39       1.0  0.6752100000000002  0.24138  0.7403999999999998  1.0000
  C   C40       1.0  0.3247900000000001  0.75862  0.2596  1.0000
  C   C41       1.0  0.7586200000000002  0.67521  0.74039  1.0000
  C   C42       1.0  0.24138000000000007  0.32479  0.2596  1.0000
  C   C43       1.0  0.72058  0.80405  0.22346999999999997  1.0000
  C   C44       1.0  0.27942  0.19595  0.77653  1.0000
  C   C45       1.0  0.8040500000000003  0.27942  0.22346999999999997  1.0000
  C   C46       1.0  0.22869000000000006  0.27131  0.25  1.0000
  C   C47       1.0  0.19595000000000007  0.7205799999999999  0.77653  1.0000
  C   C48       1.0  0.27942  0.19595  0.22346999999999997  1.0000
  C   C49       1.0  0.72058  0.80405  0.77653  1.0000
  C   C50       1.0  0.19595000000000007  0.7205799999999999  0.22346999999999997  1.0000
  C   C51       1.0  0.8040500000000003  0.27942  0.77653  1.0000
  C   C52       1.0  0.8200400000000001  0.3443399999999999  0.27676  1.0000
  C   C53       1.0  0.17996  0.65566  0.72323  1.0000
  C   C54       1.0  0.65567  0.82004  0.27676  1.0000
  C   C55       1.0  0.3443400000000001  0.17996  0.72323  1.0000
  C   C56       1.0  0.17996  0.65566  0.27676  1.0000
  C   C57       1.0  0.72869  0.22869  0.75  1.0000
  C   C58       1.0  0.8200400000000001  0.3443399999999999  0.72323  1.0000
  C   C59       1.0  0.3443400000000001  0.17996  0.27676  1.0000
  C   C60       1.0  0.65567  0.82004  0.72323  1.0000
  C   C61       1.0  0.13447  0.29879  0.75947  1.0000
  C   C62       1.0  0.8655300000000001  0.70121  0.24053  1.0000
  C   C63       1.0  0.29879  0.8655300000000001  0.75947  1.0000
  C   C64       1.0  0.7012100000000001  0.13447  0.24053  1.0000
  C   C65       1.0  0.8655300000000001  0.70121  0.75947  1.0000
  C   C66       1.0  0.13447  0.29879  0.24053  1.0000
  C   C67       1.0  0.7012100000000001  0.13447  0.75947  1.0000
  C   C68       1.0  0.27131  0.77131  0.25  1.0000
  C   C69       1.0  0.29879  0.8655300000000001  0.24053  1.0000
  C   C70       1.0  0.36553  0.79879  0.74053  1.0000
  C   C71       1.0  0.6344700000000001  0.20121  0.25947  1.0000
  C   C72       1.0  0.20121  0.36553  0.74053  1.0000
  C   C73       1.0  0.79879  0.63447  0.25947  1.0000
  C   C74       1.0  0.6344700000000001  0.20121  0.74053  1.0000
  C   C75       1.0  0.36553  0.79879  0.25947  1.0000
  C   C76       1.0  0.79879  0.63447  0.74053  1.0000
  C   C77       1.0  0.20121  0.36553  0.25947  1.0000
  C   C78       1.0  0.67996  0.84433  0.22323  1.0000
  C   C79       1.0  0.8526  0.3526  0.25  1.0000
  C   C80       1.0  0.32004000000000005  0.15566  0.77677  1.0000
  C   C81       1.0  0.8443300000000002  0.32004  0.22323  1.0000
  C   C82       1.0  0.15566  0.67996  0.77677  1.0000
  C   C83       1.0  0.32004000000000005  0.15566  0.22323  1.0000
  C   C84       1.0  0.67996  0.84433  0.77677  1.0000
  C   C85       1.0  0.15566  0.67996  0.22323  1.0000
  C   C86       1.0  0.8443300000000002  0.32004  0.77677  1.0000
  C   C87       1.0  0.14740000000000003  0.6474  0.75  1.0000
  C   C88       1.0  0.6474000000000001  0.8525999999999999  0.25  1.0000
  C   C89       1.0  0.22866  0.72866  0.75  1.0000
  C   C90       1.0  0.3526  0.1474  0.75  1.0000
  C   C91       1.0  0.14740000000000003  0.6474  0.25  1.0000
  C   C92       1.0  0.8526  0.3526  0.75  1.0000
  C   C93       1.0  0.3526  0.1474  0.25  1.0000
  C   C94       1.0  0.6474000000000001  0.8525999999999999  0.75  1.0000
  C   C95       1.0  0.14742  0.35258  0.75  1.0000
  C   C96       1.0  0.85258  0.64742  0.25  1.0000
  C   C97       1.0  0.35258  0.8525800000000001  0.75  1.0000
  C   C98       1.0  0.6474200000000001  0.14742  0.25  1.0000
  C   C99       1.0  0.85258  0.64742  0.75  1.0000
  C   C100      1.0  0.7286600000000001  0.77134  0.25  1.0000
  C   C101      1.0  0.14742  0.35258  0.25  1.0000
  C   C102      1.0  0.6474200000000001  0.14742  0.75  1.0000
  C   C103      1.0  0.35258  0.8525800000000001  0.25  1.0000
  C   C104      1.0  0.5  0.0  0.4684  1.0000
  C   C105      1.0  0.5  0.0  0.5316  1.0000
  C   C106      1.0  0.0  0.5  0.4684  1.0000
  C   C107      1.0  0.0  0.5  0.5316  1.0000
  C   C108      1.0  0.0  0.5  0.9684  1.0000
  C   C109      1.0  0.0  0.5  0.0316  1.0000
  C   C110      1.0  0.5  0.0  0.9684  1.0000
  C   C111      1.0  0.2713400000000001  0.22866  0.75  1.0000
  C   C112      1.0  0.5  0.0  0.0316  1.0000
  C   C113      1.0  0.97742  0.54488  0.11513  1.0000
  C   C114      1.0  0.02258  0.45512  0.8848699999999999  1.0000
  C   C115      1.0  0.45512  0.9774200000000001  0.11513  1.0000
  C   C116      1.0  0.5448800000000001  0.02258  0.8848699999999999  1.0000
  C   C117      1.0  0.02258  0.45512  0.11513  1.0000
  C   C118      1.0  0.97742  0.54488  0.8848699999999999  1.0000
  C   C119      1.0  0.5448800000000001  0.02257  0.11513  1.0000
  C   C120      1.0  0.45512  0.9774200000000001  0.8848699999999999  1.0000
  C   C121      1.0  0.47742  0.95512  0.61513  1.0000
  C   C122      1.0  0.22866  0.72866  0.25  1.0000
  C   C123      1.0  0.52258  0.04488  0.38486999999999993  1.0000
  C   C124      1.0  0.04488  0.47742  0.61513  1.0000
  C   C125      1.0  0.9551200000000001  0.52258  0.38486999999999993  1.0000
  C   C126      1.0  0.52258  0.04488  0.61513  1.0000
  C   C127      1.0  0.47742  0.95512  0.38486999999999993  1.0000
  C   C128      1.0  0.9551200000000001  0.52258  0.61513  1.0000
  C   C129      1.0  0.04488  0.47742  0.38486999999999993  1.0000
  C   C130      1.0  0.97727  0.54477  0.08223  1.0000
  C   C131      1.0  0.02273  0.45523  0.9177699999999999  1.0000
  C   C132      1.0  0.45523  0.97727  0.08223  1.0000
  C   C133      1.0  0.77134  0.27134  0.75  1.0000
  C   C134      1.0  0.5447700000000001  0.02273  0.9177699999999999  1.0000
  C   C135      1.0  0.02273  0.45523  0.08223  1.0000
  C   C136      1.0  0.97727  0.54477  0.9177699999999999  1.0000
  C   C137      1.0  0.5447700000000001  0.02273  0.08223  1.0000
  C   C138      1.0  0.45523  0.97727  0.9177699999999999  1.0000
  C   C139      1.0  0.47727  0.95523  0.58223  1.0000
  C   C140      1.0  0.5227300000000001  0.04476  0.4177699999999999  1.0000
  C   C141      1.0  0.04477000000000001  0.47727  0.58223  1.0000
  C   C142      1.0  0.9552300000000001  0.52273  0.4177699999999999  1.0000
  C   C143      1.0  0.5227300000000001  0.04476  0.58223  1.0000
  C   C144      1.0  0.2713400000000001  0.22866  0.25  1.0000
  C   C145      1.0  0.47727  0.95523  0.4177699999999999  1.0000
  C   C146      1.0  0.9552300000000001  0.52273  0.58223  1.0000
  C   C147      1.0  0.04477000000000001  0.47727  0.4177699999999999  1.0000
  C   C148      1.0  0.0  0.5  0.06589  1.0000
  C   C149      1.0  0.0  0.5  0.93411  1.0000
  C   C150      1.0  0.5  0.0  0.06589  1.0000
  C   C151      1.0  0.5  0.0  0.93411  1.0000
  C   C152      1.0  0.5  0.0  0.56589  1.0000
  C   C153      1.0  0.5  0.0  0.43411  1.0000
  C   C154      1.0  0.0  0.5  0.56589  1.0000
  C   C155      1.0  0.7286600000000001  0.77134  0.75  1.0000
  C   C156      1.0  0.0  0.5  0.43411  1.0000
  C   C157      1.0  0.0  0.5  0.3342  1.0000
  C   C158      1.0  0.0  0.5  0.6658  1.0000
  C   C159      1.0  0.5  0.0  0.3342  1.0000
  C   C160      1.0  0.5  0.0  0.6658  1.0000
  C   C161      1.0  0.5  0.0  0.8342  1.0000
  C   C162      1.0  0.5  0.0  0.1658  1.0000
  C   C163      1.0  0.0  0.5  0.8342  1.0000
  C   C164      1.0  0.0  0.5  0.1658  1.0000
  C   C165      1.0  0.8948700000000002  0.60513  0.25  1.0000
  C   C166      1.0  0.22869000000000006  0.27131  0.75  1.0000
  C   C167      1.0  0.10513  0.39486999999999994  0.75  1.0000
  C   C168      1.0  0.39487  0.89487  0.25  1.0000
  C   C169      1.0  0.6051300000000001  0.10513  0.75  1.0000
  C   C170      1.0  0.10513  0.39486999999999994  0.25  1.0000
  C   C171      1.0  0.8948700000000002  0.60513  0.75  1.0000
  C   C172      1.0  0.6051300000000001  0.10513  0.25  1.0000
  C   C173      1.0  0.39487  0.89487  0.75  1.0000
  C   C174      1.0  0.10512  0.60512  0.75  1.0000
  C   C175      1.0  0.89488  0.39487999999999995  0.25  1.0000
  C   C176      1.0  0.6051200000000001  0.89488  0.75  1.0000
  H   H1        1.0  0.75447  0.29788  0.29719  1.0000
  H   H2        1.0  0.8349800000000002  0.78269  0.23307  1.0000
  H   H3        1.0  0.21731  0.83499  0.76693  1.0000
  H   H4        1.0  0.7826900000000001  0.16501  0.23307  1.0000
  H   H5        1.0  0.8349800000000002  0.78269  0.76693  1.0000
  H   H6        1.0  0.16501000000000005  0.21731  0.23307  1.0000
  H   H7        1.0  0.7826900000000001  0.16501  0.76693  1.0000
  H   H8        1.0  0.21731  0.83499  0.23308  1.0000
  H   H9        1.0  0.33499000000000007  0.71731  0.73307  1.0000
  H   H10       1.0  0.6650100000000001  0.28269  0.26693  1.0000
  H   H11       1.0  0.28269000000000005  0.33498999999999995  0.73307  1.0000
  H   H12       1.0  0.24553  0.70212  0.70281  1.0000
  H   H13       1.0  0.71731  0.66501  0.26693  1.0000
  H   H14       1.0  0.6650100000000001  0.28269  0.73307  1.0000
  H   H15       1.0  0.33499000000000007  0.71731  0.26692  1.0000
  H   H16       1.0  0.71731  0.66501  0.73307  1.0000
  H   H17       1.0  0.28269000000000005  0.33498999999999995  0.26693  1.0000
  H   H18       1.0  0.7455300000000001  0.79788  0.20280999999999996  1.0000
  H   H19       1.0  0.25447  0.20212  0.79719  1.0000
  H   H20       1.0  0.7978800000000001  0.25447  0.20280999999999996  1.0000
  H   H21       1.0  0.20212000000000002  0.74553  0.79719  1.0000
  H   H22       1.0  0.25447  0.20212  0.20280999999999996  1.0000
  H   H23       1.0  0.70212  0.75447  0.29719  1.0000
  H   H24       1.0  0.7455300000000001  0.79788  0.79719  1.0000
  H   H25       1.0  0.20211000000000004  0.74553  0.20280999999999996  1.0000
  H   H26       1.0  0.7978800000000001  0.25447  0.79719  1.0000
  H   H27       1.0  0.29788000000000003  0.24553  0.70281  1.0000
  H   H28       1.0  0.24553  0.70211  0.29719  1.0000
  H   H29       1.0  0.75447  0.29788  0.70281  1.0000
  H   H30       1.0  0.29788000000000003  0.24553  0.29719  1.0000
  H   H31       1.0  0.70212  0.75447  0.70281  1.0000
  H   H32       1.0  0.16501000000000005  0.21731  0.76693  1.0000
  I   I1        1.0  0.9457400000000002  0.61381  0.14051  1.0000
  I   I2        1.0  0.55426  0.11380999999999998  0.35949  1.0000
  I   I3        1.0  0.11381000000000001  0.44573999999999997  0.64051  1.0000
  I   I4        1.0  0.88619  0.55426  0.35949  1.0000
  I   I5        1.0  0.55426  0.11380999999999998  0.64051  1.0000
  I   I6        1.0  0.44574  0.88619  0.35949  1.0000
  I   I7        1.0  0.88619  0.55426  0.64051  1.0000
  I   I8        1.0  0.11381000000000001  0.44573999999999997  0.35949  1.0000
  I   I9        1.0  0.94137  0.61133  0.05668999999999999  1.0000
  I   I10       1.0  0.05863  0.38867  0.94331  1.0000
  I   I11       1.0  0.3886700000000001  0.9413800000000001  0.05668999999999999  1.0000
  I   I12       1.0  0.05426  0.38619000000000003  0.8594899999999999  1.0000
  I   I13       1.0  0.61133  0.058620000000000005  0.94331  1.0000
  I   I14       1.0  0.05863  0.38867  0.05668999999999999  1.0000
  I   I15       1.0  0.94137  0.61133  0.94331  1.0000
  I   I16       1.0  0.61133  0.058620000000000005  0.05668999999999999  1.0000
  I   I17       1.0  0.3886700000000001  0.9413800000000001  0.94331  1.0000
  I   I18       1.0  0.4413600000000001  0.88868  0.55669  1.0000
  I   I19       1.0  0.55864  0.11132  0.44331  1.0000
  I   I20       1.0  0.11132000000000003  0.44137  0.55669  1.0000
  I   I21       1.0  0.8886700000000002  0.55863  0.44331  1.0000
  I   I22       1.0  0.55864  0.11132  0.55669  1.0000
  I   I23       1.0  0.38619  0.94575  0.14051  1.0000
  I   I24       1.0  0.4413600000000001  0.88868  0.44331  1.0000
  I   I25       1.0  0.8886700000000002  0.55863  0.55669  1.0000
  I   I26       1.0  0.11132000000000003  0.44137  0.44331  1.0000
  I   I27       1.0  0.8288200000000002  0.39258  0.31783  1.0000
  I   I28       1.0  0.17118  0.60742  0.68217  1.0000
  I   I29       1.0  0.60742  0.82882  0.31783  1.0000
  I   I30       1.0  0.39258  0.17118  0.68217  1.0000
  I   I31       1.0  0.17119  0.60742  0.31783  1.0000
  I   I32       1.0  0.8288200000000002  0.39258  0.68217  1.0000
  I   I33       1.0  0.39258  0.17118  0.31783  1.0000
  I   I34       1.0  0.6138100000000001  0.05425  0.8594899999999999  1.0000
  I   I35       1.0  0.60742  0.82882  0.68217  1.0000
  I   I36       1.0  0.05479000000000001  0.27603  0.7749199999999999  1.0000
  I   I37       1.0  0.94521  0.72397  0.22508  1.0000
  I   I38       1.0  0.27603  0.9452099999999999  0.7749199999999999  1.0000
  I   I39       1.0  0.7239700000000002  0.05478999999999999  0.22508  1.0000
  I   I40       1.0  0.94521  0.72397  0.7749199999999999  1.0000
  I   I41       1.0  0.05479000000000001  0.27603  0.22508  1.0000
  I   I42       1.0  0.7239700000000002  0.05478999999999999  0.7749199999999999  1.0000
  I   I43       1.0  0.27603  0.9452099999999999  0.22509  1.0000
  I   I44       1.0  0.44521  0.77603  0.72508  1.0000
  I   I45       1.0  0.05426  0.38619000000000003  0.14051  1.0000
  I   I46       1.0  0.5547900000000001  0.22397000000000003  0.27492  1.0000
  I   I47       1.0  0.22397  0.44521  0.72508  1.0000
  I   I48       1.0  0.77603  0.55479  0.27492  1.0000
  I   I49       1.0  0.5547900000000001  0.22397000000000003  0.72508  1.0000
  I   I50       1.0  0.44521  0.77603  0.27491  1.0000
  I   I51       1.0  0.77603  0.55479  0.72508  1.0000
  I   I52       1.0  0.22397  0.44521  0.27492  1.0000
  I   I53       1.0  0.67118  0.89258  0.18217  1.0000
  I   I54       1.0  0.3288200000000001  0.10742  0.8178300000000001  1.0000
  I   I55       1.0  0.8925800000000003  0.32882000000000006  0.18217  1.0000
  I   I56       1.0  0.9457400000000002  0.61381  0.8594899999999999  1.0000
  I   I57       1.0  0.10742  0.67118  0.8178300000000001  1.0000
  I   I58       1.0  0.3288200000000001  0.10742  0.18217  1.0000
  I   I59       1.0  0.67118  0.89258  0.8178300000000001  1.0000
  I   I60       1.0  0.10742  0.67119  0.18217  1.0000
  I   I61       1.0  0.8925800000000003  0.32882000000000006  0.8178300000000001  1.0000
  I   I62       1.0  0.6138100000000001  0.05425  0.14051  1.0000
  I   I63       1.0  0.38619  0.94575  0.8594899999999999  1.0000
  I   I64       1.0  0.44574  0.88619  0.64051  1.0000
  N   N1        1.0  0.03453  0.53338  0.01556  1.0000
  N   N2        1.0  0.5345200000000001  0.96661  0.48444  1.0000
  N   N3        1.0  0.03338  0.53453  0.51556  1.0000
  N   N4        1.0  0.9666200000000003  0.46547  0.48444  1.0000
  N   N5        1.0  0.5345200000000001  0.96661  0.51556  1.0000
  N   N6        1.0  0.46548  0.03339  0.48444  1.0000
  N   N7        1.0  0.9666200000000003  0.46547  0.51556  1.0000
  N   N8        1.0  0.03338  0.53453  0.48444  1.0000
  N   N9        1.0  0.9654700000000002  0.4666199999999999  0.98444  1.0000
  N   N10       1.0  0.5333600000000001  0.9654599999999999  0.01556  1.0000
  N   N11       1.0  0.46663000000000004  0.03454  0.98444  1.0000
  N   N12       1.0  0.9654700000000002  0.4666199999999999  0.01556  1.0000
  N   N13       1.0  0.03453  0.53338  0.98444  1.0000
  N   N14       1.0  0.46663000000000004  0.03454  0.01556  1.0000
  N   N15       1.0  0.5333600000000001  0.9654599999999999  0.98444  1.0000
  N   N16       1.0  0.46548  0.03339  0.51556  1.0000
  O   O1        1.0  0.0  0.5  0.25  1.0000
  O   O2        1.0  0.0  0.45451  0.68068  1.0000
  O   O3        1.0  0.4545100000000001  0.0  0.31932  1.0000
  O   O4        1.0  0.54549  0.0  0.68068  1.0000
  O   O5        1.0  0.5  0.95451  0.81932  1.0000
  O   O6        1.0  0.5  0.04549  0.18068  1.0000
  O   O7        1.0  0.04549000000000002  0.5  0.81932  1.0000
  O   O8        1.0  0.9545100000000002  0.5  0.18068  1.0000
  O   O9        1.0  0.5  0.04549  0.81932  1.0000
  O   O10       1.0  0.5  0.95451  0.18068  1.0000
  O   O11       1.0  0.9545100000000002  0.5  0.81932  1.0000
  O   O12       1.0  0.0  0.5  0.75  1.0000
  O   O13       1.0  0.04549000000000002  0.5  0.18068  1.0000
  O   O14       1.0  0.9360000000000002  0.60946  0.26818  1.0000
  O   O15       1.0  0.06400000000000002  0.39054  0.73182  1.0000
  O   O16       1.0  0.3905400000000001  0.9359999999999999  0.26818  1.0000
  O   O17       1.0  0.60946  0.064  0.73182  1.0000
  O   O18       1.0  0.06400000000000002  0.39054  0.26818  1.0000
  O   O19       1.0  0.9360000000000002  0.60946  0.73182  1.0000
  O   O20       1.0  0.60946  0.064  0.26818  1.0000
  O   O21       1.0  0.3905400000000001  0.9359999999999999  0.73182  1.0000
  O   O22       1.0  0.06400000000000002  0.60946  0.73182  1.0000
  O   O23       1.0  0.5  0.0  0.25  1.0000
  O   O24       1.0  0.9360000000000002  0.39054  0.26818  1.0000
  O   O25       1.0  0.60946  0.9359999999999999  0.73182  1.0000
  O   O26       1.0  0.3905400000000001  0.064  0.26818  1.0000
  O   O27       1.0  0.9360000000000002  0.39054  0.73182  1.0000
  O   O28       1.0  0.06400000000000002  0.60946  0.26818  1.0000
  O   O29       1.0  0.3905400000000001  0.064  0.73182  1.0000
  O   O30       1.0  0.60946  0.9359999999999999  0.26818  1.0000
  O   O31       1.0  0.436  0.10945999999999999  0.76818  1.0000
  O   O32       1.0  0.564  0.8905399999999999  0.23182  1.0000
  O   O33       1.0  0.8905400000000002  0.436  0.76818  1.0000
  O   O34       1.0  0.5  0.0  0.75  1.0000
  O   O35       1.0  0.10946  0.564  0.23182  1.0000
  O   O36       1.0  0.564  0.8905399999999999  0.76818  1.0000
  O   O37       1.0  0.436  0.10945999999999999  0.23182  1.0000
  O   O38       1.0  0.10946  0.564  0.76818  1.0000
  O   O39       1.0  0.8905400000000002  0.436  0.23182  1.0000
  O   O40       1.0  0.564  0.10945999999999999  0.23182  1.0000
  O   O41       1.0  0.436  0.8905399999999999  0.76818  1.0000
  O   O42       1.0  0.10946  0.436  0.23182  1.0000
  O   O43       1.0  0.8905400000000002  0.564  0.76818  1.0000
  O   O44       1.0  0.436  0.8905399999999999  0.23182  1.0000
  O   O45       1.0  0.0  0.45451  0.31932  1.0000
  O   O46       1.0  0.564  0.10945999999999999  0.76818  1.0000
  O   O47       1.0  0.8905400000000002  0.564  0.23182  1.0000
  O   O48       1.0  0.10946  0.436  0.76818  1.0000
  O   O49       1.0  0.0  0.54549  0.68068  1.0000
  O   O50       1.0  0.54549  0.0  0.31932  1.0000
  O   O51       1.0  0.4545100000000001  0.0  0.68068  1.0000
  O   O52       1.0  0.0  0.54549  0.31932  1.0000
  Zn  Zn1       1.0  0.9350200000000001  0.5  0.22404  1.0000
  Zn  Zn2       1.0  0.56498  0.0  0.27596  1.0000
  Zn  Zn3       1.0  0.0  0.43502  0.72404  1.0000
  Zn  Zn4       1.0  0.0  0.56498  0.27596  1.0000
  Zn  Zn5       1.0  0.56498  0.0  0.72404  1.0000
  Zn  Zn6       1.0  0.43502000000000013  0.0  0.27596  1.0000
  Zn  Zn7       1.0  0.0  0.56498  0.72404  1.0000
  Zn  Zn8       1.0  0.0  0.43502  0.27596  1.0000
  Zn  Zn9       1.0  0.06498  0.5  0.77596  1.0000
  Zn  Zn10      1.0  0.5  0.93502  0.22404  1.0000
  Zn  Zn11      1.0  0.5  0.06498  0.77596  1.0000
  Zn  Zn12      1.0  0.06498  0.5  0.22404  1.0000
  Zn  Zn13      1.0  0.9350200000000001  0.5  0.77596  1.0000
  Zn  Zn14      1.0  0.5  0.06498  0.22404  1.0000
  Zn  Zn15      1.0  0.5  0.93502  0.77596  1.0000
  Zn  Zn16      1.0  0.43502000000000013  0.0  0.72404  1.0000
