data_image0
_chemical_formula_structural       O24C60H24C12Cr6O2C37HOCHOCHOCHOCHOCHOCHOCHOCHOCHOCHOCHOCHOCHOCHOCHOCHOCHOCHOCHOCHOCHOCHOCHO
_chemical_formula_sum              "O50 C132 H48 Cr6"
_cell_length_a       12.8266
_cell_length_b       12.82668
_cell_length_c       26.748650000000005
_cell_angle_alpha    90.52939
_cell_angle_beta     89.47702000000001
_cell_angle_gamma    119.79929

_symmetry_space_group_name_H-M    'P 1'
_symmetry_Int_Tables_number       1

loop_
  _symmetry_equiv_pos_as_xyz
  'x,y,z'

loop_
  _atom_site_type_symbol
  _atom_site_label
  _atom_site_symmetry_multiplicity
  _atom_site_fract_x
  _atom_site_fract_y
  _atom_site_fract_z
  _atom_site_occupancy
  O   O1        1.0  0.46087000000000006  0.12093  0.80524  1.0000
  O   O2        1.0  0.66006  0.53913  0.69476  1.0000
  O   O3        1.0  0.8790700000000001  0.3399400000000001  0.80524  1.0000
  O   O4        1.0  0.46087000000000006  0.12093  0.69476  1.0000
  O   O5        1.0  0.66006  0.53913  0.80524  1.0000
  O   O6        1.0  0.8790700000000001  0.3399400000000001  0.69476  1.0000
  O   O7        1.0  0.12093000000000007  0.46087000000000006  0.30524  1.0000
  O   O8        1.0  0.53913  0.66006  0.19476000000000002  1.0000
  O   O9        1.0  0.33994  0.87907  0.30524  1.0000
  O   O10       1.0  0.12093000000000007  0.46087000000000006  0.19476000000000002  1.0000
  O   O11       1.0  0.53913  0.66006  0.30524  1.0000
  O   O12       1.0  0.33994  0.87907  0.19476000000000002  1.0000
  O   O13       1.0  0.49891  0.35047000000000006  0.80187  1.0000
  O   O14       1.0  0.85156  0.50109  0.69813  1.0000
  O   O15       1.0  0.64953  0.14844  0.80187  1.0000
  O   O16       1.0  0.49891  0.35047000000000006  0.69813  1.0000
  O   O17       1.0  0.85156  0.50109  0.80187  1.0000
  O   O18       1.0  0.64953  0.14844  0.69813  1.0000
  O   O19       1.0  0.3504700000000001  0.4989100000000001  0.30187  1.0000
  O   O20       1.0  0.50109  0.85156  0.19813  1.0000
  O   O21       1.0  0.14844  0.64953  0.30187  1.0000
  O   O22       1.0  0.3504700000000001  0.4989100000000001  0.19813  1.0000
  O   O23       1.0  0.50109  0.85156  0.30187  1.0000
  O   O24       1.0  0.14844  0.64953  0.19813  1.0000
  C   C1        1.0  0.5570300000000001  0.4571800000000001  0.82155  1.0000
  C   C2        1.0  0.8986400000000002  0.44042  0.6777100000000001  1.0000
  C   C3        1.0  0.54303  0.10054  0.82164  1.0000
  C   C4        1.0  0.55768  0.45786  0.6786000000000001  1.0000
  C   C5        1.0  0.89968  0.4430000000000001  0.82158  1.0000
  C   C6        1.0  0.5429  0.09812000000000003  0.67921  1.0000
  C   C7        1.0  0.45785  0.55776  0.32144  1.0000
  C   C8        1.0  0.44292000000000015  0.9003100000000002  0.17855  1.0000
  C   C9        1.0  0.09816  0.54294  0.3208  1.0000
  C   C10       1.0  0.45793  0.55708  0.17863  1.0000
  C   C11       1.0  0.44044000000000005  0.8986300000000003  0.3223  1.0000
  C   C12       1.0  0.09992000000000005  0.5422900000000002  0.17850000000000002  1.0000
  C   C13       1.0  0.9938900000000002  0.4955000000000001  0.97405  1.0000
  C   C14       1.0  0.49794  0.99972  0.52867  1.0000
  C   C15       1.0  0.50488  0.49828  0.9743  1.0000
  C   C16       1.0  0.99465  0.49058  0.52381  1.0000
  C   C17       1.0  0.5019  0.006920000000000001  0.97432  1.0000
  C   C18       1.0  0.51012  0.50692  0.52638  1.0000
  C   C19       1.0  0.49047000000000013  0.9942500000000001  0.47623  1.0000
  C   C20       1.0  0.0024900000000000052  0.49856  0.02643  1.0000
  C   C21       1.0  0.5066  0.51056  0.47378  1.0000
  C   C22       1.0  0.4969600000000002  0.9983900000000002  0.0267  1.0000
  C   C23       1.0  0.00013000000000003547  0.4981400000000001  0.47138  1.0000
  C   C24       1.0  0.50232  0.50284  0.02671  1.0000
  C   C25       1.0  0.9624  0.66709  0.97764  1.0000
  C   C26       1.0  0.7014800000000001  0.032430000000000014  0.52336  1.0000
  C   C27       1.0  0.33369  0.29582  0.97659  1.0000
  C   C28       1.0  0.01443999999999995  0.68951  0.52805  1.0000
  C   C29       1.0  0.70465  0.03786  0.97597  1.0000
  C   C30       1.0  0.32762  0.31268  0.52502  1.0000
  C   C31       1.0  0.68887  0.01276  0.4721  1.0000
  C   C32       1.0  0.98493  0.67853  0.02864  1.0000
  C   C33       1.0  0.31228000000000006  0.32811  0.47507  1.0000
  C   C34       1.0  0.69417  0.015390000000000003  0.02698  1.0000
  C   C35       1.0  0.03395  0.70207  0.47678  1.0000
  C   C36       1.0  0.32306  0.30571  0.02783  1.0000
  C   C37       1.0  0.9446800000000001  0.5661900000000001  0.89886  1.0000
  C   C38       1.0  0.61901  0.044930000000000005  0.60333  1.0000
  C   C39       1.0  0.43332  0.3800200000000001  0.8982300000000001  1.0000
  C   C40       1.0  0.9695200000000003  0.57124  0.60284  1.0000
  C   C41       1.0  0.62079  0.05559000000000001  0.89818  1.0000
  C   C42       1.0  0.43229  0.39022  0.60249  1.0000
  C   C43       1.0  0.5710200000000002  0.9688200000000002  0.39723  1.0000
  C   C44       1.0  0.03236000000000004  0.6089200000000001  0.10429000000000001  1.0000
  C   C45       1.0  0.3901200000000001  0.43267000000000005  0.3976100000000001  1.0000
  C   C46       1.0  0.57777  0.96793  0.10362  1.0000
  C   C47       1.0  0.04566  0.61934  0.39676  1.0000
  C   C48       1.0  0.39234  0.42167000000000004  0.10425  1.0000
  C   C49       1.0  0.036719999999999996  0.51696  0.13005  1.0000
  C   C50       1.0  0.4715300000000001  0.9582700000000001  0.37231  1.0000
  C   C51       1.0  0.4839000000000001  0.5177700000000001  0.13036  1.0000
  C   C52       1.0  0.030590000000000003  0.52139  0.36791  1.0000
  C   C53       1.0  0.48188  0.9642400000000002  0.13027  1.0000
  C   C54       1.0  0.48426000000000013  0.52153  0.37009  1.0000
  C   C55       1.0  0.5212  0.03037  0.6321300000000001  1.0000
  C   C56       1.0  0.96052  0.48311000000000004  0.87037  1.0000
  C   C57       1.0  0.5211800000000001  0.48429000000000005  0.63004  1.0000
  C   C58       1.0  0.52203  0.04039999999999999  0.87058  1.0000
  C   C59       1.0  0.9583800000000005  0.4714600000000001  0.6277  1.0000
  C   C60       1.0  0.51672  0.47857  0.8704500000000002  1.0000
  H   H1        1.0  0.05134000000000006  0.6911800000000001  0.12355  1.0000
  H   H2        1.0  0.63679  0.95458  0.37714  1.0000
  H   H3        1.0  0.31004  0.35874  0.12326  1.0000
  H   H4        1.0  0.08006999999999993  0.70675  0.37989  1.0000
  H   H5        1.0  0.6407400000000001  0.9482800000000002  0.12218  1.0000
  H   H6        1.0  0.30554  0.37303  0.37959  1.0000
  H   H7        1.0  0.7063299999999999  0.07898  0.62024  1.0000
  H   H8        1.0  0.91021  0.6192200000000001  0.8817400000000001  1.0000
  H   H9        1.0  0.37272000000000005  0.30556  0.62047  1.0000
  H   H10       1.0  0.70791  0.08937000000000002  0.88037  1.0000
  H   H11       1.0  0.9555999999999999  0.63719  0.62296  1.0000
  H   H12       1.0  0.37994000000000006  0.29306  0.88044  1.0000
  H   H13       1.0  0.9830200000000001  0.75016  0.04914  1.0000
  H   H14       1.0  0.76219  0.01676  0.45058  1.0000
  H   H15       1.0  0.25213  0.23192  0.04796  1.0000
  H   H16       1.0  0.055350000000000094  0.7858200000000002  0.45929  1.0000
  H   H17       1.0  0.76781  0.017190000000000004  0.04671  1.0000
  H   H18       1.0  0.2313  0.26319  0.45674  1.0000
  H   H19       1.0  0.7850900000000001  0.05349  0.54088  1.0000
  H   H20       1.0  0.94222  0.72909  0.9595100000000001  1.0000
  H   H21       1.0  0.26276  0.23162  0.54331  1.0000
  H   H22       1.0  0.78652  0.05788  0.95705  1.0000
  H   H23       1.0  0.019200000000000144  0.7631100000000002  0.54961  1.0000
  H   H24       1.0  0.27174  0.21432000000000004  0.95785  1.0000
  C   C61       1.0  0.96928  0.57821  0.94989  1.0000
  C   C62       1.0  0.60564  0.0224  0.55205  1.0000
  C   C63       1.0  0.42192  0.39183  0.94944  1.0000
  C   C64       1.0  0.9937900000000001  0.58437  0.55179  1.0000
  C   C65       1.0  0.60874  0.031170000000000003  0.9492  1.0000
  C   C66       1.0  0.42236  0.40353000000000006  0.55156  1.0000
  C   C67       1.0  0.5840500000000001  0.9928600000000001  0.4483  1.0000
  C   C68       1.0  0.005040000000000014  0.59512  0.05339  1.0000
  C   C69       1.0  0.40324  0.42283000000000004  0.44857  1.0000
  C   C70       1.0  0.5910100000000003  0.9954600000000002  0.05271  1.0000
  C   C71       1.0  0.02327000000000001  0.60603  0.44804  1.0000
  C   C72       1.0  0.40624000000000005  0.40863000000000005  0.05319  1.0000
  Cr  Cr1       1.0  0.48763000000000006  0.24118000000000003  0.75  1.0000
  Cr  Cr2       1.0  0.75355  0.51237  0.75  1.0000
  Cr  Cr3       1.0  0.75882  0.24645  0.75  1.0000
  Cr  Cr4       1.0  0.24118000000000003  0.48763000000000006  0.25  1.0000
  Cr  Cr5       1.0  0.5123700000000001  0.7535500000000002  0.25  1.0000
  Cr  Cr6       1.0  0.24645  0.75882  0.25  1.0000
  O   O25       1.0  0.66667  0.33333  0.75  1.0000
  O   O26       1.0  0.33333000000000007  0.66667  0.25  1.0000
  C   C73       1.0  0.014570000000000019  0.42251000000000005  0.89274  1.0000
  C   C74       1.0  0.40679000000000004  0.9752500000000001  0.61042  1.0000
  C   C75       1.0  0.5775800000000001  0.5926100000000001  0.89366  1.0000
  C   C76       1.0  0.98617  0.39001000000000013  0.60162  1.0000
  C   C77       1.0  0.40784  0.98694  0.89382  1.0000
  C   C78       1.0  0.5920600000000001  0.5981100000000001  0.607  1.0000
  C   C79       1.0  0.3903  0.98638  0.39837  1.0000
  C   C80       1.0  0.99862  0.40596  0.10524  1.0000
  C   C81       1.0  0.59803  0.5926  0.3932  1.0000
  C   C82       1.0  0.40945000000000004  0.00329  0.10638  1.0000
  C   C83       1.0  0.97519  0.40696000000000004  0.38959  1.0000
  C   C84       1.0  0.5948600000000002  0.5902700000000001  0.10586  1.0000
  C   C85       1.0  0.009309999999999983  0.41074  0.9457700000000001  1.0000
  C   C86       1.0  0.3994900000000001  0.9844800000000002  0.55799  1.0000
  C   C87       1.0  0.5894  0.5985200000000002  0.94668  1.0000
  C   C88       1.0  0.99472  0.39305  0.54811  1.0000
  C   C89       1.0  0.40159  0.99177  0.947  1.0000
  C   C90       1.0  0.59855  0.6058  0.55366  1.0000
  C   C91       1.0  0.3932600000000001  0.99484  0.45188  1.0000
  C   C92       1.0  0.006150000000000018  0.40518000000000004  0.05209  1.0000
  C   C93       1.0  0.60563  0.59894  0.44656000000000007  1.0000
  C   C94       1.0  0.40043000000000006  0.9951800000000001  0.05335  1.0000
  C   C95       1.0  0.9844200000000001  0.39957  0.44201  1.0000
  C   C96       1.0  0.59557  0.59924  0.05288  1.0000
  C   C97       1.0  0.01645  0.31531  0.02437  1.0000
  C   C98       1.0  0.30548000000000003  0.005300000000000001  0.48213  1.0000
  C   C99       1.0  0.6847800000000002  0.6996600000000001  0.02586  1.0000
  C   C100      1.0  0.99281  0.3048400000000001  0.46492  1.0000
  C   C101      1.0  0.2998400000000001  0.9843600000000001  0.02675  1.0000
  C   C102      1.0  0.7032000000000002  0.69199  0.47391000000000005  1.0000
  C   C103      1.0  0.3050200000000001  0.9932800000000002  0.53503  1.0000
  C   C104      1.0  0.016189999999999996  0.31691  0.97091  1.0000
  C   C105      1.0  0.6919500000000001  0.70318  0.5264  1.0000
  C   C106      1.0  0.30093  0.9844500000000003  0.97327  1.0000
  C   C107      1.0  0.00478999999999999  0.30508  0.51781  1.0000
  C   C108      1.0  0.68312  0.69853  0.97241  1.0000
  C   C109      1.0  0.92584  0.29311000000000004  0.13414  1.0000
  H   H25       1.0  0.93202  0.2917100000000001  0.17444  1.0000
  O   O27       1.0  0.8496600000000001  0.20182  0.11362  1.0000
  C   C110      1.0  0.30563  0.007240000000000001  0.36846  1.0000
  H   H26       1.0  0.34034  0.08536000000000002  0.34447000000000005  1.0000
  O   O28       1.0  0.19834000000000004  0.93401  0.36812000000000006  1.0000
  C   C111      1.0  0.70756  0.6303300000000001  0.13479  1.0000
  H   H27       1.0  0.70817  0.6366000000000002  0.1752  1.0000
  O   O29       1.0  0.79963  0.64687  0.11409  1.0000
  C   C112      1.0  0.89639  0.30078  0.35795  1.0000
  H   H28       1.0  0.90204  0.30679  0.3175  1.0000
  O   O30       1.0  0.8187600000000002  0.20763  0.37668  1.0000
  C   C113      1.0  0.3696999999999999  0.0766  0.13603  1.0000
  H   H29       1.0  0.36393000000000003  0.07157000000000001  0.17643  1.0000
  O   O31       1.0  0.35276  0.15185  0.11592  1.0000
  C   C114      1.0  0.7051  0.6545000000000001  0.3604  1.0000
  H   H30       1.0  0.7513700000000002  0.7514500000000002  0.35646  1.0000
  O   O32       1.0  0.73902  0.59607  0.33591  1.0000
  C   C115      1.0  0.3005499999999999  0.89658  0.6420400000000002  1.0000
  H   H31       1.0  0.30661  0.90204  0.68249  1.0000
  O   O33       1.0  0.20726000000000006  0.81926  0.6232900000000001  1.0000
  C   C116      1.0  0.09570000000000002  0.39652000000000004  0.86129  1.0000
  H   H32       1.0  0.08475000000000003  0.38631000000000004  0.82112  1.0000
  O   O34       1.0  0.18215  0.39556  0.87955  1.0000
  C   C117      1.0  0.65328  0.7051700000000001  0.63985  1.0000
  H   H33       1.0  0.75009  0.75113  0.64432  1.0000
  O   O35       1.0  0.59438  0.73952  0.66374  1.0000
  C   C118      1.0  0.30104000000000003  0.9059600000000001  0.86301  1.0000
  H   H34       1.0  0.30118  0.91746  0.82293  1.0000
  O   O36       1.0  0.2145900000000001  0.8190300000000003  0.88161  1.0000
  C   C119      1.0  0.006689999999999994  0.30508  0.63149  1.0000
  H   H35       1.0  0.08477000000000003  0.33956000000000003  0.65551  1.0000
  O   O37       1.0  0.93325  0.19786000000000004  0.63178  1.0000
  C   C120      1.0  0.6038100000000002  0.6998  0.86316  1.0000
  H   H36       1.0  0.61429  0.69924  0.8229400000000001  1.0000
  O   O38       1.0  0.6046600000000002  0.7870600000000002  0.8822600000000002  1.0000
  C   C121      1.0  0.03954000000000001  0.22901000000000002  0.05207  1.0000
  H   H37       1.0  0.09762000000000004  0.25986000000000004  0.08451  1.0000
  O   O39       1.0  0.98876  0.12248000000000003  0.04149  1.0000
  C   C122      1.0  0.22742  0.04769000000000002  0.46011  1.0000
  H   H38       1.0  0.26606  0.12038000000000001  0.4336  1.0000
  O   O40       1.0  0.12050999999999999  0.0013599999999999988  0.46976  1.0000
  C   C123      1.0  0.7698800000000001  0.8086700000000001  0.0544  1.0000
  H   H39       1.0  0.73791  0.83557  0.08701  1.0000
  O   O41       1.0  0.8766000000000002  0.8646000000000003  0.04426  1.0000
  C   C124      1.0  0.010780000000000005  0.21814  0.43341  1.0000
  H   H40       1.0  0.96901  0.12437000000000001  0.44321000000000005  1.0000
  O   O42       1.0  0.07465  0.25152  0.39616  1.0000
  C   C125      1.0  0.19079000000000007  0.9602700000000002  0.05573000000000001  1.0000
  H   H41       1.0  0.16427999999999993  0.90112  0.08779  1.0000
  O   O43       1.0  0.13472  0.0115  0.04674  1.0000
  C   C126      1.0  0.81676  0.77852  0.44869  1.0000
  H   H42       1.0  0.8677900000000002  0.74574  0.42808000000000007  1.0000
  O   O44       1.0  0.8532700000000002  0.88621  0.45003  1.0000
  C   C127      1.0  0.21839000000000003  0.011560000000000003  0.56646  1.0000
  H   H43       1.0  0.1249500000000001  0.9709500000000002  0.55635  1.0000
  O   O45       1.0  0.25150000000000006  0.07459000000000002  0.60393  1.0000
  C   C128      1.0  0.00799999999999998  0.21491000000000002  0.9406300000000002  1.0000
  H   H44       1.0  0.95349  0.18641000000000002  0.9071000000000001  1.0000
  O   O46       1.0  0.06428  0.16473000000000002  0.9509700000000002  1.0000
  C   C129      1.0  0.77918  0.8161800000000002  0.55179  1.0000
  H   H45       1.0  0.74713  0.8678800000000001  0.57236  1.0000
  O   O47       1.0  0.88663  0.8514700000000001  0.55064  1.0000
  C   C130      1.0  0.20606000000000005  0.9916200000000001  0.94417  1.0000
  H   H46       1.0  0.23036000000000006  0.04426  0.9101600000000001  1.0000
  O   O48       1.0  0.10048000000000003  0.9369  0.95615  1.0000
  C   C131      1.0  0.04668000000000004  0.22651000000000004  0.53977  1.0000
  H   H47       1.0  0.11899  0.2646  0.56647  1.0000
  O   O49       1.0  0.0005500000000000135  0.11979000000000002  0.52974  1.0000
  C   C132      1.0  0.7850400000000002  0.7922600000000001  0.94266  1.0000
  H   H48       1.0  0.8135400000000003  0.7666700000000002  0.9086300000000002  1.0000
  O   O50       1.0  0.8355400000000001  0.8981600000000001  0.9541500000000002  1.0000
