data_image0
_chemical_formula_structural       C28H14N2O12Zn2
_chemical_formula_sum              "C28 H14 N2 O12 Zn2"
_cell_length_a       7.89511
_cell_length_b       8.490650000000002
_cell_length_c       13.758090000000001
_cell_angle_alpha    94.20491
_cell_angle_beta     93.19307
_cell_angle_gamma    93.89262000000001

_symmetry_space_group_name_H-M    'P 1'
_symmetry_Int_Tables_number       1

loop_
  _symmetry_equiv_pos_as_xyz
  'x,y,z'

loop_
  _atom_site_type_symbol
  _atom_site_label
  _atom_site_symmetry_multiplicity
  _atom_site_fract_x
  _atom_site_fract_y
  _atom_site_fract_z
  _atom_site_occupancy
  C   C1        1.0  0.048160000000000015  0.79522  0.50981  1.0000
  C   C2        1.0  0.93668  0.48680999999999996  0.3180800000000001  1.0000
  C   C3        1.0  0.09250000000000003  0.51893  0.7872700000000002  1.0000
  C   C4        1.0  0.90131  0.4568  0.21364  1.0000
  C   C5        1.0  0.03826999999999999  0.62793  0.9483000000000003  1.0000
  C   C6        1.0  0.9237  0.2921  0.06516  1.0000
  C   C7        1.0  0.9881  0.5998  0.84965  1.0000
  C   C8        1.0  0.98873  0.3473200000000001  0.15855000000000005  1.0000
  C   C9        1.0  0.23761999999999994  0.4549699999999999  0.82434  1.0000
  C   C10       1.0  0.7556199999999997  0.51602  0.17417000000000005  1.0000
  C   C11       1.0  0.29121  0.48162  0.9227600000000002  1.0000
  C   C12       1.0  0.95966  0.20793  0.51492  1.0000
  C   C13       1.0  0.6775599999999998  0.4493799999999999  0.08593000000000002  1.0000
  C   C14       1.0  0.19239  0.5749099999999998  0.9843700000000001  1.0000
  C   C15       1.0  0.76671  0.33966999999999997  0.029320000000000006  1.0000
  C   C16       1.0  0.44699  0.42845000000000005  0.9592400000000002  1.0000
  C   C17       1.0  0.5124999999999997  0.48686  0.05386  1.0000
  C   C18       1.0  0.26426  0.0262  0.54905  1.0000
  C   C19       1.0  0.7942999999999998  0.0021999999999999997  0.60023  1.0000
  C   C20       1.0  0.4857199999999999  0.37955000000000005  0.3864200000000001  1.0000
  C   C21       1.0  0.5174099999999998  0.6089000000000001  0.6174000000000001  1.0000
  C   C22       1.0  0.4086899999999999  0.57655  0.11442000000000001  1.0000
  C   C23       1.0  0.53937  0.31931  0.90425  1.0000
  C   C24       1.0  0.25062  0.6177599999999999  0.08032  1.0000
  C   C25       1.0  0.6962199999999997  0.27576  0.93909  1.0000
  C   C26       1.0  0.08264999999999997  0.9610699999999999  0.53785  1.0000
  C   C27       1.0  0.9491899999999998  0.05202  0.54978  1.0000
  C   C28       1.0  0.06288  0.51098  0.68198  1.0000
  H   H1        1.0  0.10268999999999998  0.30044  0.1889  1.0000
  H   H2        1.0  0.49104  0.26003999999999994  0.83536  1.0000
  H   H3        1.0  0.30228  0.12295999999999999  0.60364  1.0000
  H   H4        1.0  0.67588  0.05616999999999999  0.58564  1.0000
  H   H5        1.0  0.4552199999999999  0.42943  0.3178800000000001  1.0000
  H   H6        1.0  0.55867  0.55485  0.6828800000000002  1.0000
  H   H7        1.0  0.8734299999999998  0.64816  0.82145  1.0000
  H   H8        1.0  0.17542  0.68698  0.12875  1.0000
  H   H9        1.0  0.76204  0.19064999999999993  0.89539  1.0000
  H   H10       1.0  0.7016899999999998  0.60956  0.21679  1.0000
  H   H11       1.0  0.31344  0.39414999999999994  0.7730700000000001  1.0000
  H   H12       1.0  0.96028  0.6961899999999998  0.9955300000000002  1.0000
  H   H13       1.0  0.99201  0.20733  0.022800000000000004  1.0000
  H   H14       1.0  0.4435599999999999  0.614  0.18971  1.0000
  N   N1        1.0  0.44085999999999986  0.45649  0.4747900000000001  1.0000
  N   N2        1.0  0.55914  0.5435099999999999  0.52521  1.0000
  O   O1        1.0  0.8915699999999998  0.73893  0.50619  1.0000
  O   O2        1.0  0.80101  0.90804  0.6631000000000002  1.0000
  O   O3        1.0  0.54714  0.25159  0.38603  1.0000
  O   O4        1.0  0.44599  0.73164  0.6246  1.0000
  O   O5        1.0  0.10843000000000001  0.26107  0.4938100000000001  1.0000
  O   O6        1.0  0.17465  0.71105  0.49003  1.0000
  O   O7        1.0  0.8253499999999998  0.28895  0.5099700000000001  1.0000
  O   O8        1.0  0.9098499999999998  0.5219  0.64494  1.0000
  O   O9        1.0  0.09015  0.47809999999999997  0.35506000000000004  1.0000
  O   O10       1.0  0.19293  0.49401999999999996  0.62878  1.0000
  O   O11       1.0  0.80707  0.50598  0.3712200000000001  1.0000
  O   O12       1.0  0.3705499999999999  0.97584  0.4960100000000001  1.0000
  Zn  Zn1       1.0  0.81099  0.5186199999999997  0.51079  1.0000
  Zn  Zn2       1.0  0.18901  0.48138  0.48921  1.0000
