data_image0
_chemical_formula_structural       C144H96O68Zn16
_chemical_formula_sum              "C144 H96 O68 Zn16"
_cell_length_a       15.93884
_cell_length_b       15.91791
_cell_length_c       26.04116
_cell_angle_alpha    90.08162
_cell_angle_beta     89.85165
_cell_angle_gamma    90.00167

_symmetry_space_group_name_H-M    'P 1'
_symmetry_Int_Tables_number       1

loop_
  _symmetry_equiv_pos_as_xyz
  'x,y,z'

loop_
  _atom_site_type_symbol
  _atom_site_label
  _atom_site_symmetry_multiplicity
  _atom_site_fract_x
  _atom_site_fract_y
  _atom_site_fract_z
  _atom_site_occupancy
  C   C1        1.0  0.99883  0.49611  0.44587  1.0000
  C   C2        1.0  0.50861  0.9995999999999998  0.60984  1.0000
  C   C3        1.0  0.86458  0.6504299999999997  0.9035599999999999  1.0000
  C   C4        1.0  0.64925  0.10637  0.07179  1.0000
  C   C5        1.0  0.3198  0.89924  0.9072399999999998  1.0000
  C   C6        1.0  0.86931  0.65029  0.0923  1.0000
  C   C7        1.0  0.87841  0.34028  0.9135699999999999  1.0000
  C   C8        1.0  0.83926  0.39694  0.57446  1.0000
  C   C9        1.0  0.09025000000000002  0.3410999999999999  0.41025  1.0000
  C   C10       1.0  0.60157  0.82944  0.57978  1.0000
  C   C11       1.0  0.6479300000000002  0.12449999999999997  0.4036199999999999  1.0000
  C   C12       1.0  0.18228000000000005  0.5625699999999998  0.57191  1.0000
  C   C13       1.0  0.9996700000000002  0.50009  0.3900599999999999  1.0000
  C   C14       1.0  0.8824000000000002  0.6481799999999998  0.42242999999999997  1.0000
  C   C15       1.0  0.63194  0.1506  0.59632  1.0000
  C   C16       1.0  0.3574200000000001  0.8967099999999998  0.42254999999999987  1.0000
  C   C17       1.0  0.79526  0.9794999999999998  0.06361  1.0000
  C   C18       1.0  0.86575  0.043959999999999985  0.05774  1.0000
  C   C19       1.0  0.19518  0.02798  0.9509499999999997  1.0000
  C   C20       1.0  0.11888  0.9705099999999998  0.95007  1.0000
  C   C21       1.0  0.9801800000000003  0.80313  0.05474999999999999  1.0000
  C   C22       1.0  0.07563000000000003  0.80771  0.05694  1.0000
  C   C23       1.0  0.0041  0.19864999999999994  0.93265  1.0000
  C   C24       1.0  0.0006200000000000002  0.49828  0.60944  1.0000
  C   C25       1.0  0.9392400000000002  0.12852  0.93788  1.0000
  C   C26       1.0  0.20628  0.01748  0.06914  1.0000
  C   C27       1.0  0.24138  0.0917  0.09946999999999999  1.0000
  C   C28       1.0  0.80603  0.91577  0.95375  1.0000
  C   C29       1.0  0.81616  0.9556199999999998  0.9005099999999998  1.0000
  C   C30       1.0  0.06559000000000002  0.19710999999999995  0.042529999999999984  1.0000
  C   C31       1.0  0.02628  0.18879  0.096  1.0000
  C   C32       1.0  0.9780300000000002  0.79675  0.93591  1.0000
  C   C33       1.0  0.05457  0.77236  0.90371  1.0000
  C   C34       1.0  0.30417  0.41809  0.54847  1.0000
  C   C35       1.0  0.98981  0.49980999999999987  0.88988  1.0000
  C   C36       1.0  0.3749800000000001  0.4724399999999999  0.5272399999999999  1.0000
  C   C37       1.0  0.70312  0.6045899999999997  0.45648  1.0000
  C   C38       1.0  0.64611  0.5341099999999998  0.4370699999999999  1.0000
  C   C39       1.0  0.5245  0.29678  0.55029  1.0000
  C   C40       1.0  0.58747  0.3639699999999999  0.56544  1.0000
  C   C41       1.0  0.35452  0.7258999999999998  0.47082  1.0000
  C   C42       1.0  0.26953  0.74976  0.494  1.0000
  C   C43       1.0  0.7052200000000002  0.54004  0.56605  1.0000
  C   C44       1.0  0.7236200000000003  0.62051  0.59589  1.0000
  C   C45       1.0  0.27175  0.33851  0.44487999999999994  1.0000
  C   C46       1.0  0.99816  0.50032  0.10916999999999998  1.0000
  C   C47       1.0  0.3016300000000001  0.38381  0.39617  1.0000
  C   C48       1.0  0.50046  0.6837699999999998  0.54099  1.0000
  C   C49       1.0  0.44704  0.66241  0.5879699999999999  1.0000
  C   C50       1.0  0.57621  0.29904  0.43657  1.0000
  C   C51       1.0  0.51061  0.29312  0.3941399999999999  1.0000
  C   C52       1.0  0.4991499999999999  0.99141  0.89004  1.0000
  C   C53       1.0  0.4997300000000001  0.9989099999999997  0.10934  1.0000
  C   C54       1.0  0.34  0.16007  0.25004  1.0000
  C   C55       1.0  0.6599700000000002  0.8399099999999998  0.7499899999999998  1.0000
  C   C56       1.0  0.8399600000000003  0.33993  0.25001  1.0000
  C   C57       1.0  0.0018100000000000002  0.4926799999999999  0.55271  1.0000
  C   C58       1.0  0.16005000000000008  0.6600599999999998  0.7500099999999998  1.0000
  C   C59       1.0  0.66006  0.8399699999999998  0.24999  1.0000
  C   C60       1.0  0.33994  0.16002  0.7500099999999998  1.0000
  C   C61       1.0  0.16  0.66004  0.24998  1.0000
  C   C62       1.0  0.84001  0.33996  0.7500099999999998  1.0000
  C   C63       1.0  0.33997  0.8399199999999998  0.7500199999999998  1.0000
  C   C64       1.0  0.66005  0.16005  0.25001  1.0000
  C   C65       1.0  0.8399800000000002  0.66004  0.7500599999999998  1.0000
  C   C66       1.0  0.16  0.3399399999999999  0.24996  1.0000
  C   C67       1.0  0.66003  0.15999999999999995  0.74995  1.0000
  C   C68       1.0  0.50992  0.0015299999999999997  0.4468999999999999  1.0000
  C   C69       1.0  0.34001  0.83996  0.25001  1.0000
  C   C70       1.0  0.16005000000000005  0.3399699999999999  0.7499799999999998  1.0000
  C   C71       1.0  0.83995  0.66002  0.25001  1.0000
  C   C72       1.0  0.27668  0.77664  0.25001  1.0000
  C   C73       1.0  0.72336  0.22333999999999996  0.74992  1.0000
  C   C74       1.0  0.22329  0.2766  0.24996  1.0000
  C   C75       1.0  0.77665  0.7233499999999998  0.7501  1.0000
  C   C76       1.0  0.72335  0.22333999999999996  0.25002  1.0000
  C   C77       1.0  0.27668  0.7766199999999998  0.7500299999999999  1.0000
  C   C78       1.0  0.7766400000000002  0.72333  0.25  1.0000
  C   C79       1.0  0.53  0.9976399999999997  0.55407  1.0000
  C   C80       1.0  0.22336000000000003  0.27666  0.7499799999999998  1.0000
  C   C81       1.0  0.27662  0.22333  0.7500099999999998  1.0000
  C   C82       1.0  0.72338  0.77666  0.24997  1.0000
  C   C83       1.0  0.2233700000000001  0.7233499999999998  0.7500399999999998  1.0000
  C   C84       1.0  0.7766600000000002  0.27661  0.25002  1.0000
  C   C85       1.0  0.7232500000000002  0.77655  0.7500099999999998  1.0000
  C   C86       1.0  0.27669  0.22339999999999993  0.25005  1.0000
  C   C87       1.0  0.77671  0.2766  0.7499899999999998  1.0000
  C   C88       1.0  0.22332  0.72339  0.24997  1.0000
  C   C89       1.0  0.34621000000000013  0.94828  0.05371  1.0000
  C   C90       1.0  0.49602  0.9681199999999998  0.94533  1.0000
  C   C91       1.0  0.6458400000000002  0.92427  0.9536499999999998  1.0000
  C   C92       1.0  0.05021  0.35702  0.03957  1.0000
  C   C93       1.0  0.92516  0.64902  0.94712  1.0000
  C   C94       1.0  0.6491400000000003  0.0261  0.04196  1.0000
  C   C95       1.0  0.33766  0.95795  0.9503699999999999  1.0000
  C   C96       1.0  0.9345400000000003  0.65104  0.05116  1.0000
  C   C97       1.0  0.94949  0.3443699999999999  0.9511299999999999  1.0000
  C   C98       1.0  0.8463000000000003  0.47771  0.5456  1.0000
  C   C99       1.0  0.12416  0.4004299999999999  0.4498999999999999  1.0000
  C   C100      1.0  0.52931  0.84129  0.54425  1.0000
  C   C101      1.0  0.49788  0.98886  0.0526  1.0000
  C   C102      1.0  0.58743  0.13947999999999994  0.4465  1.0000
  C   C103      1.0  0.15981  0.4852299999999999  0.5422899999999999  1.0000
  C   C104      1.0  0.8616600000000002  0.57527  0.45634999999999987  1.0000
  C   C105      1.0  0.5760000000000002  0.14792  0.55078  1.0000
  C   C106      1.0  0.42381  0.8702399999999998  0.45945  1.0000
  C   C107      1.0  0.27231  0.98201  0.03298  1.0000
  C   C108      1.0  0.72377  0.94115  0.9785799999999999  1.0000
  C   C109      1.0  0.03699  0.27703  0.01605  1.0000
  C   C110      1.0  0.9502300000000002  0.7246399999999997  0.97013  1.0000
  C   C111      1.0  0.7244600000000002  0.98898  0.02483  1.0000
  C   C112      1.0  0.9642600000000002  0.4986099999999999  0.9450699999999997  1.0000
  C   C113      1.0  0.2684200000000001  0.98851  0.97882  1.0000
  C   C114      1.0  0.95244  0.7266099999999998  0.02465  1.0000
  C   C115      1.0  0.99042  0.27176  0.9695799999999998  1.0000
  C   C116      1.0  0.77554  0.5223899999999998  0.52798  1.0000
  C   C117      1.0  0.20469  0.38978  0.47281  1.0000
  C   C118      1.0  0.48378  0.77288  0.52266  1.0000
  C   C119      1.0  0.57726  0.21987999999999994  0.46931  1.0000
  C   C120      1.0  0.22253  0.4328299999999999  0.51984  1.0000
  C   C121      1.0  0.7821000000000002  0.56939  0.48149999999999993  1.0000
  C   C122      1.0  0.56452  0.22267  0.52319  1.0000
  C   C123      1.0  0.98747  0.50132  0.05221  1.0000
  C   C124      1.0  0.42225  0.79017  0.48418  1.0000
  C   C125      1.0  0.92885  0.52509  0.4747399999999999  1.0000
  C   C126      1.0  0.07701000000000002  0.48014  0.52354  1.0000
  C   C127      1.0  0.4824000000000001  0.93159  0.47629999999999995  1.0000
  C   C128      1.0  0.55217  0.07155999999999997  0.52671  1.0000
  C   C129      1.0  0.06712  0.45832  0.47214  1.0000
  C   C130      1.0  0.92518  0.4982  0.5253499999999999  1.0000
  C   C131      1.0  0.55092  0.06981  0.47241  1.0000
  C   C132      1.0  0.5147  0.9231499999999998  0.52562  1.0000
  C   C133      1.0  0.41886  0.96386  0.9732  1.0000
  C   C134      1.0  0.50112  0.00040999999999999983  0.39048  1.0000
  C   C135      1.0  0.5725700000000002  0.995  0.02291  1.0000
  C   C136      1.0  0.9692500000000002  0.4229999999999999  0.9729999999999999  1.0000
  C   C137      1.0  0.9558300000000002  0.57446  0.02628  1.0000
  C   C138      1.0  0.57193  0.9624599999999998  0.97305  1.0000
  C   C139      1.0  0.4219600000000001  0.9654099999999998  0.027339999999999996  1.0000
  C   C140      1.0  0.9482400000000002  0.5735699999999998  0.9721499999999997  1.0000
  C   C141      1.0  0.00209  0.42676  0.022729999999999997  1.0000
  C   C142      1.0  0.34284  0.8772599999999998  0.09087999999999999  1.0000
  C   C143      1.0  0.63594  0.85474  0.9150299999999999  1.0000
  C   C144      1.0  0.12675  0.3744899999999999  0.07127  1.0000
  H   H1        1.0  0.40057  0.84703  0.10293  1.0000
  H   H2        1.0  0.0229  0.3318299999999999  0.40776  1.0000
  H   H3        1.0  0.65526  0.87114  0.57689  1.0000
  H   H4        1.0  0.66008  0.06085  0.3906199999999999  1.0000
  H   H5        1.0  0.13762000000000005  0.61405  0.57371  1.0000
  H   H6        1.0  0.93697  0.64741  0.39768999999999993  1.0000
  H   H7        1.0  0.63941  0.20799  0.6181099999999998  1.0000
  H   H8        1.0  0.33609  0.9614699999999998  0.42278999999999994  1.0000
  H   H9        1.0  0.92097  0.01543  0.03859  1.0000
  H   H10       1.0  0.84502  0.09998999999999997  0.03593  1.0000
  H   H11       1.0  0.8864800000000003  0.06455999999999998  0.09639999999999997  1.0000
  H   H12       1.0  0.5765100000000002  0.8450299999999997  0.89582  1.0000
  H   H13       1.0  0.76921  0.9844699999999997  0.10318999999999999  1.0000
  H   H14       1.0  0.82126  0.9148599999999998  0.06187  1.0000
  H   H15       1.0  0.13932  0.9052999999999998  0.94256  1.0000
  H   H16       1.0  0.08426  0.9720299999999997  0.98697  1.0000
  H   H17       1.0  0.07538  0.9904599999999998  0.9191699999999999  1.0000
  H   H18       1.0  0.17930000000000004  0.08938  0.9686199999999999  1.0000
  H   H19       1.0  0.21333  0.04202  0.9105999999999999  1.0000
  H   H20       1.0  0.10136000000000003  0.75011  0.0751  1.0000
  H   H21       1.0  0.10313  0.81456  0.01805  1.0000
  H   H22       1.0  0.09404  0.86255  0.08048  1.0000
  H   H23       1.0  0.14442000000000005  0.43895  0.07939  1.0000
  H   H24       1.0  0.9540500000000002  0.8614899999999998  0.03823  1.0000
  H   H25       1.0  0.9576200000000002  0.8006299999999997  0.09499999999999997  1.0000
  H   H26       1.0  0.9622  0.07867  0.9637499999999999  1.0000
  H   H27       1.0  0.87821  0.15227  0.95242  1.0000
  H   H28       1.0  0.9294  0.09942  0.89965  1.0000
  H   H29       1.0  0.0036700000000000005  0.22226  0.89247  1.0000
  H   H30       1.0  0.06812  0.17238999999999993  0.9369899999999999  1.0000
  H   H31       1.0  0.29212  0.07047999999999997  0.12517  1.0000
  H   H32       1.0  0.26657  0.14031  0.07304  1.0000
  H   H33       1.0  0.19149  0.11989999999999998  0.12374999999999997  1.0000
  H   H34       1.0  0.8531300000000003  0.70743  0.88208  1.0000
  H   H35       1.0  0.14998  0.03920999999999999  0.04875  1.0000
  H   H36       1.0  0.18459  0.9693999999999998  0.09669  1.0000
  H   H37       1.0  0.7766400000000002  0.9238599999999998  0.87146  1.0000
  H   H38       1.0  0.79846  0.02306  0.90185  1.0000
  H   H39       1.0  0.88243  0.95088  0.88766  1.0000
  H   H40       1.0  0.86056  0.93663  0.9763799999999999  1.0000
  H   H41       1.0  0.8105700000000002  0.84656  0.9522199999999998  1.0000
  H   H42       1.0  0.05284000000000001  0.23511999999999994  0.12328  1.0000
  H   H43       1.0  0.9574300000000002  0.19874999999999995  0.09387  1.0000
  H   H44       1.0  0.03818  0.12486999999999997  0.11134999999999998  1.0000
  H   H45       1.0  0.59071  0.13985  0.07785999999999997  1.0000
  H   H46       1.0  0.0465  0.14033  0.02127  1.0000
  H   H47       1.0  0.13472  0.19457  0.04404  1.0000
  H   H48       1.0  0.07406  0.8262  0.87942  1.0000
  H   H49       1.0  0.10754  0.75352  0.9288099999999999  1.0000
  H   H50       1.0  0.039160000000000014  0.7199399999999998  0.8774499999999997  1.0000
  H   H51       1.0  0.9931200000000002  0.85385  0.95798  1.0000
  H   H52       1.0  0.9277700000000002  0.8143099999999998  0.90898  1.0000
  H   H53       1.0  0.39989000000000013  0.4469399999999999  0.49069  1.0000
  H   H54       1.0  0.35251  0.53709  0.52058  1.0000
  H   H55       1.0  0.42661  0.4749599999999999  0.55544  1.0000
  H   H56       1.0  0.26087  0.90255  0.88664  1.0000
  H   H57       1.0  0.29615  0.43093  0.59005  1.0000
  H   H58       1.0  0.32191  0.35077  0.54824  1.0000
  H   H59       1.0  0.67943  0.4962899999999999  0.40748  1.0000
  H   H60       1.0  0.6262500000000002  0.4918599999999999  0.46852  1.0000
  H   H61       1.0  0.5889600000000003  0.5616299999999997  0.41951  1.0000
  H   H62       1.0  0.6686900000000002  0.6457999999999998  0.48362  1.0000
  H   H63       1.0  0.7168  0.64328  0.42229  1.0000
  H   H64       1.0  0.6209600000000002  0.34488  0.60071  1.0000
  H   H65       1.0  0.63305  0.37587  0.5340799999999999  1.0000
  H   H66       1.0  0.5543600000000002  0.42328  0.57448  1.0000
  H   H67       1.0  0.8482500000000002  0.59105  0.10837999999999998  1.0000
  H   H68       1.0  0.4752500000000001  0.32396999999999987  0.52538  1.0000
  H   H69       1.0  0.4912600000000001  0.27544  0.58556  1.0000
  H   H70       1.0  0.22293  0.6999299999999998  0.4851699999999999  1.0000
  H   H71       1.0  0.2747  0.7556999999999998  0.53637  1.0000
  H   H72       1.0  0.24596  0.80987  0.47821  1.0000
  H   H73       1.0  0.3497500000000001  0.7169099999999998  0.42876  1.0000
  H   H74       1.0  0.36871  0.66271  0.48500999999999994  1.0000
  H   H75       1.0  0.78476  0.6153  0.61601  1.0000
  H   H76       1.0  0.72578  0.6754099999999997  0.56967  1.0000
  H   H77       1.0  0.6738200000000002  0.6307199999999997  0.6251  1.0000
  H   H78       1.0  0.84428  0.39716  0.90407  1.0000
  H   H79       1.0  0.6434800000000003  0.54534  0.54711  1.0000
  H   H80       1.0  0.69879  0.48962  0.59488  1.0000
  H   H81       1.0  0.24895  0.4126599999999999  0.37477  1.0000
  H   H82       1.0  0.34633  0.4346199999999999  0.40624999999999994  1.0000
  H   H83       1.0  0.33343  0.33865  0.37014  1.0000
  H   H84       1.0  0.32798  0.3254499999999999  0.4680899999999999  1.0000
  H   H85       1.0  0.24756  0.27497  0.43572  1.0000
  H   H86       1.0  0.45627  0.7092  0.61906  1.0000
  H   H87       1.0  0.37972  0.66184  0.5777099999999998  1.0000
  H   H88       1.0  0.4649000000000001  0.59962  0.6028  1.0000
  H   H89       1.0  0.89552  0.3643399999999999  0.58675  1.0000
  H   H90       1.0  0.4912300000000001  0.6368099999999998  0.51007  1.0000
  H   H91       1.0  0.56739  0.67539  0.55042  1.0000
  H   H92       1.0  0.5296000000000002  0.24646999999999994  0.36467  1.0000
  H   H93       1.0  0.44937  0.27397  0.41073  1.0000
  H   H94       1.0  0.5035500000000003  0.35515  0.3751799999999999  1.0000
  H   H95       1.0  0.5611  0.35563  0.45934999999999987  1.0000
  H   H96       1.0  0.63896  0.31133  0.4197799999999999  1.0000
  O   O1        1.0  0.5  0.0  0.25  1.0000
  O   O2        1.0  0.5  0.93077  0.6341399999999999  1.0000
  O   O3        1.0  0.9307700000000002  0.4999999999999999  0.36586  1.0000
  O   O4        1.0  0.06923  0.4999999999999999  0.6341399999999999  1.0000
  O   O5        1.0  8.587859861589358e-19  0.4307699999999999  0.8658599999999997  1.0000
  O   O6        1.0  6.802265236902462e-21  0.5692299999999998  0.13414  1.0000
  O   O7        1.0  0.5692300000000002  0.0  0.8658599999999997  1.0000
  O   O8        1.0  0.4307700000000001  0.0  0.13414  1.0000
  O   O9        1.0  5.509834841890995e-19  0.5692299999999998  0.8658599999999997  1.0000
  O   O10       1.0  0.0  0.4307699999999999  0.13414  1.0000
  O   O11       1.0  0.4307700000000001  0.0  0.8658599999999997  1.0000
  O   O12       1.0  0.5000000000000002  0.9999999999999999  0.7499999999999998  1.0000
  O   O13       1.0  0.5692300000000002  0.0  0.13414  1.0000
  O   O14       1.0  0.40255  0.16663  0.28041  1.0000
  O   O15       1.0  0.59745  0.8333699999999998  0.7195899999999998  1.0000
  O   O16       1.0  0.83337  0.40255  0.28041  1.0000
  O   O17       1.0  0.16663  0.5974499999999998  0.7195899999999998  1.0000
  O   O18       1.0  0.59745  0.8333699999999998  0.28041  1.0000
  O   O19       1.0  0.40255  0.16662999999999997  0.7195899999999998  1.0000
  O   O20       1.0  0.16663  0.5974499999999998  0.28041  1.0000
  O   O21       1.0  0.83337  0.40255  0.7195899999999998  1.0000
  O   O22       1.0  0.40255  0.8333699999999998  0.7195899999999998  1.0000
  O   O23       1.0  5.271755558599408e-20  0.4999999999999999  0.25  1.0000
  O   O24       1.0  0.59745  0.16663  0.28041  1.0000
  O   O25       1.0  0.83337  0.5974499999999998  0.7195899999999998  1.0000
  O   O26       1.0  0.16663  0.40255  0.28041  1.0000
  O   O27       1.0  0.59745  0.16662999999999997  0.7195899999999998  1.0000
  O   O28       1.0  0.40255  0.8333699999999998  0.28041  1.0000
  O   O29       1.0  0.16663  0.40255  0.7195899999999998  1.0000
  O   O30       1.0  0.83337  0.5974499999999998  0.28041  1.0000
  O   O31       1.0  0.90255  0.66663  0.78041  1.0000
  O   O32       1.0  0.09745  0.33337  0.21959  1.0000
  O   O33       1.0  0.3333700000000001  0.90255  0.78041  1.0000
  O   O34       1.0  7.057350183286305e-19  0.4999999999999999  0.7499999999999998  1.0000
  O   O35       1.0  0.66663  0.09745  0.21959  1.0000
  O   O36       1.0  0.09745  0.33337  0.78041  1.0000
  O   O37       1.0  0.90255  0.66663  0.21959  1.0000
  O   O38       1.0  0.66663  0.09745  0.78041  1.0000
  O   O39       1.0  0.3333700000000001  0.90255  0.21959  1.0000
  O   O40       1.0  0.90255  0.33337  0.21959  1.0000
  O   O41       1.0  0.09745  0.66663  0.78041  1.0000
  O   O42       1.0  0.3333700000000001  0.09745  0.21959  1.0000
  O   O43       1.0  0.66663  0.90255  0.78041  1.0000
  O   O44       1.0  0.09745  0.66663  0.21959  1.0000
  O   O45       1.0  0.5  0.93077  0.36586  1.0000
  O   O46       1.0  0.90255  0.33337  0.78041  1.0000
  O   O47       1.0  0.66663  0.90255  0.21959  1.0000
  O   O48       1.0  0.3333700000000001  0.09745  0.78041  1.0000
  O   O49       1.0  0.27636  0.8496099999999998  0.10692  1.0000
  O   O50       1.0  0.69104  0.80342  0.9064799999999998  1.0000
  O   O51       1.0  0.17294  0.31929  0.08707  1.0000
  O   O52       1.0  0.8237400000000002  0.58808  0.8925  1.0000
  O   O53       1.0  0.71346  0.13707  0.08894  1.0000
  O   O54       1.0  0.36980000000000013  0.84425  0.89553  1.0000
  O   O55       1.0  0.83481  0.7146699999999998  0.1067  1.0000
  O   O56       1.0  0.5  0.06923  0.6341399999999999  1.0000
  O   O57       1.0  0.8554  0.27483  0.89373  1.0000
  O   O58       1.0  0.77228  0.36244  0.58193  1.0000
  O   O59       1.0  0.13457  0.30336  0.37976  1.0000
  O   O60       1.0  0.60001  0.77788  0.6143399999999999  1.0000
  O   O61       1.0  0.68768  0.18142999999999995  0.38386  1.0000
  O   O62       1.0  0.24841  0.57054  0.59478  1.0000
  O   O63       1.0  0.84383  0.7142499999999998  0.4255099999999999  1.0000
  O   O64       1.0  0.67298  0.08917  0.60882  1.0000
  O   O65       1.0  0.329  0.8490099999999998  0.39027999999999996  1.0000
  O   O66       1.0  0.06923  0.4999999999999999  0.36586  1.0000
  O   O67       1.0  0.9307700000000002  0.4999999999999999  0.6341399999999999  1.0000
  O   O68       1.0  0.5  0.06923  0.36586  1.0000
  Zn  Zn1       1.0  0.40105000000000013  0.0  0.20667  1.0000
  Zn  Zn2       1.0  0.09894999999999998  0.4999999999999999  0.29333  1.0000
  Zn  Zn3       1.0  0.5000000000000002  0.90105  0.70667  1.0000
  Zn  Zn4       1.0  0.5  0.09895  0.29333  1.0000
  Zn  Zn5       1.0  0.09895  0.4999999999999999  0.70667  1.0000
  Zn  Zn6       1.0  0.90105  0.4999999999999999  0.29333  1.0000
  Zn  Zn7       1.0  0.5  0.09895  0.70667  1.0000
  Zn  Zn8       1.0  0.5  0.90105  0.29333  1.0000
  Zn  Zn9       1.0  0.5989500000000002  0.9999999999999998  0.79333  1.0000
  Zn  Zn10      1.0  1.7005663092256155e-20  0.40105  0.20667  1.0000
  Zn  Zn11      1.0  0.0  0.59895  0.79333  1.0000
  Zn  Zn12      1.0  0.5989500000000002  0.0  0.20667  1.0000
  Zn  Zn13      1.0  0.40105000000000013  0.9999999999999998  0.79333  1.0000
  Zn  Zn14      1.0  9.523171331663448e-20  0.59895  0.20667  1.0000
  Zn  Zn15      1.0  0.0  0.40105  0.79333  1.0000
  Zn  Zn16      1.0  0.90105  0.4999999999999999  0.70667  1.0000
