data_image0
_chemical_formula_structural       C24H4N2O8Zn2C6H5C6H5C6H5C6H5C2H5C2H5C2H5C2H5
_chemical_formula_sum              "C56 H44 N2 O8 Zn2"
_cell_length_a       10.54668
_cell_length_b       9.99324
_cell_length_c       15.858620000000002
_cell_angle_alpha    90.15702
_cell_angle_beta     92.44894999999998
_cell_angle_gamma    89.89883999999999

_symmetry_space_group_name_H-M    'P 1'
_symmetry_Int_Tables_number       1

loop_
  _symmetry_equiv_pos_as_xyz
  'x,y,z'

loop_
  _atom_site_type_symbol
  _atom_site_label
  _atom_site_symmetry_multiplicity
  _atom_site_fract_x
  _atom_site_fract_y
  _atom_site_fract_z
  _atom_site_occupancy
  C   C1        1.0  0.8716700000000001  0.4995  0.49971  1.0000
  C   C2        1.0  0.12829999999999997  0.49998  0.4998599999999999  1.0000
  C   C3        1.0  0.26072  0.50005  0.49976  1.0000
  C   C4        1.0  0.73927  0.49987  0.49996  1.0000
  C   C5        1.0  0.49985999999999997  0.49983000000000005  0.33979  1.0000
  C   C6        1.0  0.50036  0.50039  0.66031  1.0000
  C   C7        1.0  0.49444999999999995  0.62945  0.95685  1.0000
  C   C8        1.0  0.52152  0.38047  0.04425  1.0000
  C   C9        1.0  0.49922  0.62753  0.04598999999999999  1.0000
  C   C10       1.0  0.51991  0.38216  0.9555099999999997  1.0000
  C   C11       1.0  0.5054399999999999  0.50617  0.91323  1.0000
  C   C12       1.0  0.51075  0.50298  0.0878  1.0000
  C   C13       1.0  0.50276  0.50535  0.82358  1.0000
  C   C14       1.0  0.50716  0.50058  0.17714999999999995  1.0000
  C   C15       1.0  0.5034  0.49961  0.25175  1.0000
  C   C16       1.0  0.50132  0.50238  0.74869  1.0000
  C   C17       1.0  0.5903  0.07168  0.54614  1.0000
  C   C18       1.0  0.40992999999999996  0.92831  0.45368999999999987  1.0000
  C   C19       1.0  0.4108  0.07178  0.4529399999999999  1.0000
  C   C20       1.0  0.59019  0.9281900000000001  0.5461799999999998  1.0000
  C   C21       1.0  0.06015  0.50117  0.42282  1.0000
  C   C22       1.0  0.93984  0.497  0.57671  1.0000
  C   C23       1.0  0.92981  0.5013  0.42265  1.0000
  C   C24       1.0  0.07015  0.49754  0.5769  1.0000
  H   H1        1.0  0.10791  0.50228  0.36366  1.0000
  H   H2        1.0  0.8920699999999999  0.49460000000000004  0.63584  1.0000
  H   H3        1.0  0.8747  0.50276  0.36337  1.0000
  H   H4        1.0  0.12523  0.4959200000000001  0.63619  1.0000
  N   N1        1.0  0.5  0.8572000000000001  0.5  1.0000
  N   N2        1.0  0.5  0.14280000000000004  0.5  1.0000
  O   O1        1.0  0.31677  0.61462  0.49999  1.0000
  O   O2        1.0  0.68323  0.38538000000000006  0.50001  1.0000
  O   O3        1.0  0.68323  0.61462  0.50001  1.0000
  O   O4        1.0  0.31677  0.38538000000000006  0.49999  1.0000
  O   O5        1.0  0.49998  0.61463  0.3780199999999999  1.0000
  O   O6        1.0  0.50002  0.38537  0.62198  1.0000
  O   O7        1.0  0.50002  0.61463  0.62198  1.0000
  O   O8        1.0  0.49998  0.38537  0.3780199999999999  1.0000
  Zn  Zn1       1.0  0.5  0.65312  0.5  1.0000
  Zn  Zn2       1.0  0.5  0.3468800000000001  0.5  1.0000
  C   C25       1.0  0.69267  0.14154  0.59509  1.0000
  C   C26       1.0  0.81228  0.15511  0.56024  1.0000
  C   C27       1.0  0.91787  0.19153  0.61122  1.0000
  C   C28       1.0  0.90474  0.21733  0.6969399999999998  1.0000
  C   C29       1.0  0.78612  0.20527000000000004  0.73199  1.0000
  C   C30       1.0  0.68039  0.16617  0.68154  1.0000
  H   H5        1.0  0.8244  0.13239  0.49425  1.0000
  H   H6        1.0  0.009949999999999992  0.19988  0.58432  1.0000
  H   H7        1.0  0.98667  0.24598  0.73627  1.0000
  H   H8        1.0  0.7775900000000001  0.22259  0.7988  1.0000
  H   H9        1.0  0.59033  0.14996  0.71017  1.0000
  C   C31       1.0  0.30758  0.85824  0.40491  1.0000
  C   C32       1.0  0.32168  0.82758  0.3194  1.0000
  C   C33       1.0  0.21694  0.78514  0.26914  1.0000
  C   C34       1.0  0.09744  0.77635  0.30329  1.0000
  C   C35       1.0  0.08251  0.80837  0.388  1.0000
  C   C36       1.0  0.18713  0.84811  0.43886  1.0000
  H   H10       1.0  0.4126  0.84084  0.29132999999999987  1.0000
  H   H11       1.0  0.22699000000000003  0.76214  0.20316  1.0000
  H   H12       1.0  0.0163  0.74497  0.2641  1.0000
  H   H13       1.0  0.98985  0.802  0.41417  1.0000
  H   H14       1.0  0.17388  0.8758  0.50393  1.0000
  C   C37       1.0  0.31477  0.1423  0.39883  1.0000
  C   C38       1.0  0.19067  0.15739  0.42619  1.0000
  C   C39       1.0  0.09323  0.19991  0.37008  1.0000
  C   C40       1.0  0.11944  0.2307  0.28676  1.0000
  C   C41       1.0  0.24272  0.21637000000000003  0.25904  1.0000
  C   C42       1.0  0.33974  0.17004  0.31444  1.0000
  H   H15       1.0  0.16905  0.13184  0.49024  1.0000
  H   H16       1.0  0.99743  0.20919  0.39127  1.0000
  H   H17       1.0  0.044039999999999996  0.26475  0.24355  1.0000
  H   H18       1.0  0.26224  0.23832  0.19412  1.0000
  H   H19       1.0  0.43356  0.15292  0.29131  1.0000
  C   C43       1.0  0.69068  0.85731  0.59624  1.0000
  C   C44       1.0  0.67068  0.81943  0.6797  1.0000
  C   C45       1.0  0.7709900000000001  0.76807  0.73035  1.0000
  C   C46       1.0  0.89303  0.76165  0.69977  1.0000
  C   C47       1.0  0.91429  0.80261  0.61748  1.0000
  C   C48       1.0  0.81322  0.8479900000000001  0.56539  1.0000
  H   H20       1.0  0.5779  0.83081  0.70558  1.0000
  H   H21       1.0  0.75483  0.7347300000000001  0.79365  1.0000
  H   H22       1.0  0.9709599999999999  0.72399  0.73957  1.0000
  H   H23       1.0  0.008790000000000003  0.79756  0.59381  1.0000
  H   H24       1.0  0.83062  0.8800500000000001  0.50183  1.0000
  C   C49       1.0  0.48938  0.75582  0.09816999999999997  1.0000
  C   C50       1.0  0.61838  0.7984800000000001  0.13688999999999996  1.0000
  H   H25       1.0  0.65646  0.72251  0.18215  1.0000
  H   H26       1.0  0.68793  0.8128100000000001  0.0872  1.0000
  H   H27       1.0  0.6077  0.89419  0.17157  1.0000
  H   H28       1.0  0.44716  0.84058  0.06234  1.0000
  H   H29       1.0  0.4233100000000001  0.7400900000000001  0.14947  1.0000
  C   C51       1.0  0.53171  0.25243  0.90515  1.0000
  C   C52       1.0  0.40166  0.19136000000000003  0.88373  1.0000
  H   H30       1.0  0.35111  0.1689  0.94198  1.0000
  H   H31       1.0  0.34309  0.26142000000000004  0.84413  1.0000
  H   H32       1.0  0.41343  0.09687  0.84787  1.0000
  H   H33       1.0  0.57955  0.2703  0.8456099999999998  1.0000
  H   H34       1.0  0.594  0.17844  0.93838  1.0000
  C   C53       1.0  0.47462  0.7609000000000001  0.9080699999999998  1.0000
  C   C54       1.0  0.59038  0.85338  0.9154499999999998  1.0000
  H   H35       1.0  0.67958  0.7949  0.92361  1.0000
  H   H36       1.0  0.59532  0.9154300000000001  0.8577  1.0000
  H   H37       1.0  0.58348  0.92353  0.9692499999999997  1.0000
  H   H38       1.0  0.45319  0.74372  0.83993  1.0000
  H   H39       1.0  0.38883  0.81363  0.92921  1.0000
  C   C55       1.0  0.53667  0.24959000000000003  0.09354  1.0000
  C   C56       1.0  0.67563  0.22432000000000002  0.11962  1.0000
  H   H40       1.0  0.73383  0.21641  0.06311  1.0000
  H   H41       1.0  0.71306  0.3069  0.1605  1.0000
  H   H42       1.0  0.68421  0.12938  0.15555  1.0000
  H   H43       1.0  0.48016999999999993  0.25167  0.15082  1.0000
  H   H44       1.0  0.4983  0.16215  0.05794  1.0000
