data_image0
_chemical_formula_structural       C112H80N16O52Zn16
_chemical_formula_sum              "C112 H80 N16 O52 Zn16"
_cell_length_a       15.8974
_cell_length_b       15.87931
_cell_length_c       25.95489
_cell_angle_alpha    89.96828
_cell_angle_beta     89.99644
_cell_angle_gamma    89.97413

_space_group_name_H-M_alt    "P 1"
_space_group_IT_number       1

loop_
  _space_group_symop_operation_xyz
  'x, y, z'

loop_
  _atom_site_type_symbol
  _atom_site_label
  _atom_site_symmetry_multiplicity
  _atom_site_fract_x
  _atom_site_fract_y
  _atom_site_fract_z
  _atom_site_occupancy
  C   C1        1.0  0.00061  0.50015  0.44612  1.0000
  C   C2        1.0  0.49998  4.999999999999998e-05  0.60994  1.0000
  C   C3        1.0  0.27766  0.31959  0.9138  1.0000
  C   C4        1.0  0.34326  0.7025099999999999  0.08439999999999999  1.0000
  C   C5        1.0  0.52971  0.3633  0.9451999999999999  1.0000
  C   C6        1.0  0.30978  0.31513  0.06043  1.0000
  C   C7        1.0  0.7053099999999998  0.6640299999999998  0.91575  1.0000
  C   C8        1.0  0.13867  0.8325799999999998  0.55849  1.0000
  C   C9        1.0  0.87317  0.16313  0.44241  1.0000
  C   C10       1.0  0.20539  0.21176999999999996  0.55276  1.0000
  C   C11       1.0  0.7682299999999997  0.76877  0.43996999999999997  1.0000
  C   C12       1.0  0.95849  0.18757999999999994  0.6097  1.0000
  C   C13       1.0  9e-05  0.50012  0.39006  1.0000
  C   C14       1.0  0.9905  0.86025  0.4386  1.0000
  C   C15       1.0  0.7667999999999999  0.79972  0.58851  1.0000
  C   C16       1.0  0.1442  0.04695  0.44646  1.0000
  C   C17       1.0  0.99997  0.50054  0.60994  1.0000
  C   C18       1.0  0.99942  0.4999699999999999  0.89006  1.0000
  C   C19       1.0  0.0005200000000000002  0.4999999999999999  0.10992  1.0000
  C   C20       1.0  0.50006  0.00044000000000000023  0.8900699999999998  1.0000
  C   C21       1.0  0.4999899999999999  0.99998  0.10995  1.0000
  C   C22       1.0  0.33995  0.16005999999999995  0.25001  1.0000
  C   C23       1.0  0.66006  0.8399599999999998  0.74998  1.0000
  C   C24       1.0  0.8399499999999998  0.3399399999999999  0.24999  1.0000
  C   C25       1.0  0.99987  0.5004499999999997  0.55389  1.0000
  C   C26       1.0  0.16005  0.66006  0.7500099999999998  1.0000
  C   C27       1.0  0.66006  0.8399399999999998  0.25003  1.0000
  C   C28       1.0  0.3399599999999999  0.16008  0.74999  1.0000
  C   C29       1.0  0.16006  0.66006  0.24996999999999997  1.0000
  C   C30       1.0  0.83999  0.3398899999999999  0.74999  1.0000
  C   C31       1.0  0.3399599999999999  0.8399199999999998  0.7500099999999998  1.0000
  C   C32       1.0  0.6600399999999997  0.16008  0.24999  1.0000
  C   C33       1.0  0.8399499999999998  0.66005  0.7500099999999998  1.0000
  C   C34       1.0  0.16006  0.33996  0.24997999999999998  1.0000
  C   C35       1.0  0.66005  0.16008  0.74999  1.0000
  C   C36       1.0  0.49974  0.9991699999999998  0.44615  1.0000
  C   C37       1.0  0.33999  0.83988  0.24997999999999998  1.0000
  C   C38       1.0  0.16006  0.3399399999999999  0.75003  1.0000
  C   C39       1.0  0.83996  0.66007  0.24999  1.0000
  C   C40       1.0  0.27674  0.7765799999999998  0.24995  1.0000
  C   C41       1.0  0.72335  0.22334  0.7499599999999998  1.0000
  C   C42       1.0  0.22333999999999996  0.27667  0.24996999999999997  1.0000
  C   C43       1.0  0.77667  0.72335  0.7499999999999999  1.0000
  C   C44       1.0  0.72331  0.22336999999999996  0.24997999999999998  1.0000
  C   C45       1.0  0.27668  0.77663  0.7500099999999998  1.0000
  C   C46       1.0  0.77669  0.72337  0.25  1.0000
  C   C47       1.0  0.50002  0.00015000000000000004  0.55393  1.0000
  C   C48       1.0  0.22333999999999996  0.27667  0.75005  1.0000
  C   C49       1.0  0.2767  0.22338  0.7500099999999998  1.0000
  C   C50       1.0  0.72333  0.7766599999999998  0.25004  1.0000
  C   C51       1.0  0.22333999999999996  0.72334  0.75002  1.0000
  C   C52       1.0  0.7766499999999997  0.27666  0.24996999999999997  1.0000
  C   C53       1.0  0.7233399999999998  0.7766599999999998  0.74997  1.0000
  C   C54       1.0  0.27668  0.22336  0.24999  1.0000
  C   C55       1.0  0.77672  0.2765999999999999  0.74999  1.0000
  C   C56       1.0  0.22338  0.7233099999999998  0.24992999999999996  1.0000
  C   C57       1.0  0.45822  0.8503299999999998  0.05359  1.0000
  C   C58       1.0  0.50034  0.00035999999999999997  0.94613  1.0000
  C   C59       1.0  0.54543  0.14945  0.94661  1.0000
  C   C60       1.0  0.14827  0.45144  0.05307999999999999  1.0000
  C   C61       1.0  0.85114  0.54611  0.94665  1.0000
  C   C62       1.0  0.54388  0.14932  0.05386  1.0000
  C   C63       1.0  0.45986  0.85009  0.9463499999999999  1.0000
  C   C64       1.0  0.85159  0.54549  0.05389  1.0000
  C   C65       1.0  0.14625  0.44918999999999987  0.94591  1.0000
  C   C66       1.0  0.97846  0.34631  0.55385  1.0000
  C   C67       1.0  0.029639999999999993  0.65299  0.44620999999999994  1.0000
  C   C68       1.0  0.642  0.9363399999999997  0.55375  1.0000
  C   C69       1.0  0.4999699999999999  0.00014999999999999993  0.05392  1.0000
  C   C70       1.0  0.35566  0.057649999999999986  0.44636  1.0000
  C   C71       1.0  0.02387  0.6541799999999998  0.55345  1.0000
  C   C72       1.0  0.97879  0.3463199999999999  0.44661  1.0000
  C   C73       1.0  0.35673  0.06096  0.55353  1.0000
  C   C74       1.0  0.63994  0.93152  0.44666  1.0000
  C   C75       1.0  0.43739  0.77653  0.026909999999999996  1.0000
  C   C76       1.0  0.5675799999999999  0.22288999999999995  0.97334  1.0000
  C   C77       1.0  0.21988999999999995  0.42448  0.02614  1.0000
  C   C78       1.0  0.77819  0.5692399999999997  0.97346  1.0000
  C   C79       1.0  0.56783  0.22243  0.02748  1.0000
  C   C80       1.0  0.9995  0.4997799999999999  0.9460899999999999  1.0000
  C   C81       1.0  0.43912  0.77614  0.97293  1.0000
  C   C82       1.0  0.7782699999999998  0.5684  0.027439999999999992  1.0000
  C   C83       1.0  0.2182  0.42193999999999987  0.97215  1.0000
  C   C84       1.0  0.96923  0.26936  0.52741  1.0000
  C   C85       1.0  0.04271  0.72867  0.47273  1.0000
  C   C86       1.0  0.70946  0.8995799999999998  0.52726  1.0000
  C   C87       1.0  0.2842899999999999  0.08587  0.47288  1.0000
  C   C88       1.0  0.0397  0.7293299999999998  0.52681  1.0000
  C   C89       1.0  0.96854  0.2702099999999999  0.47317999999999993  1.0000
  C   C90       1.0  0.28566  0.08971999999999997  0.52691  1.0000
  C   C91       1.0  0.00029  0.49994  0.05387  1.0000
  C   C92       1.0  0.7079299999999997  0.8964299999999997  0.47337  1.0000
  C   C93       1.0  0.9888499999999998  0.42349  0.47298  1.0000
  C   C94       1.0  0.0126  0.57701  0.52706  1.0000
  C   C95       1.0  0.56979  0.9657699999999998  0.47298  1.0000
  C   C96       1.0  0.42881  0.03104999999999999  0.52714  1.0000
  C   C97       1.0  0.01422  0.57664  0.47277  1.0000
  C   C98       1.0  0.9886099999999999  0.42353  0.52723  1.0000
  C   C99       1.0  0.42859  0.03028  0.47285  1.0000
  C   C100      1.0  0.57031  0.9670699999999998  0.52726  1.0000
  C   C101      1.0  0.47881  0.9256799999999997  0.97284  1.0000
  C   C102      1.0  0.50016  0.99986  0.39009  1.0000
  C   C103      1.0  0.52238  0.07457  0.02725  1.0000
  C   C104      1.0  0.07290999999999997  0.4743699999999999  0.9726499999999998  1.0000
  C   C105      1.0  0.92628  0.52382  0.027279999999999995  1.0000
  C   C106      1.0  0.52292  0.07463  0.9729599999999998  1.0000
  C   C107      1.0  0.47841  0.9256599999999998  0.02714  1.0000
  C   C108      1.0  0.92597  0.52397  0.97297  1.0000
  C   C109      1.0  0.07358  0.47484  0.02693  1.0000
  C   C110      1.0  0.68111  0.31142  0.057379999999999994  1.0000
  C   C111      1.0  0.33685  0.6809199999999997  0.9365499999999999  1.0000
  C   C112      1.0  0.6888599999999998  0.67525  0.06424  1.0000
  H   H1        1.0  0.45929  0.8474699999999997  0.09523  1.0000
  H   H2        1.0  0.03168  0.6549  0.40454  1.0000
  H   H3        1.0  0.64669  0.9404799999999998  0.59523  1.0000
  H   H4        1.0  0.35203  0.05495999999999999  0.40477  1.0000
  H   H5        1.0  0.02191  0.65683  0.59511  1.0000
  H   H6        1.0  0.97865  0.34411  0.40493  1.0000
  H   H7        1.0  0.35447  0.06239  0.59516  1.0000
  H   H8        1.0  0.64264  0.9302399999999997  0.40504  1.0000
  H   H9        1.0  0.5642099999999998  0.29972  0.09172  1.0000
  H   H10       1.0  0.69317  0.3713299999999999  0.07815999999999998  1.0000
  H   H11       1.0  0.7072599999999998  0.31749  0.01789  1.0000
  H   H12       1.0  0.54555  0.15201999999999993  0.90495  1.0000
  H   H13       1.0  0.71376  0.25944  0.07797  1.0000
  H   H14       1.0  0.4594499999999999  0.6955399999999998  0.91176  1.0000
  H   H15       1.0  0.33151  0.6198399999999997  0.91598  1.0000
  H   H16       1.0  0.3070699999999999  0.7308199999999998  0.91264  1.0000
  H   H17       1.0  0.30278  0.67517  0.97365  1.0000
  H   H18       1.0  0.69735  0.55182  0.08878999999999997  1.0000
  H   H19       1.0  0.62897  0.68372  0.08561  1.0000
  H   H20       1.0  0.68365  0.70961  0.02718  1.0000
  H   H21       1.0  0.74088  0.70245  0.08750999999999999  1.0000
  H   H22       1.0  0.31662  0.4431099999999999  0.92269  1.0000
  H   H23       1.0  0.15189  0.4534799999999999  0.0947  1.0000
  H   H24       1.0  0.33859  0.29823  0.8976399999999998  1.0000
  H   H25       1.0  0.23403000000000002  0.3319699999999999  0.88122  1.0000
  H   H26       1.0  0.25177  0.2681999999999999  0.93814  1.0000
  H   H27       1.0  0.47062  0.68047  0.07574  1.0000
  H   H28       1.0  0.32984  0.63821  0.09907  1.0000
  H   H29       1.0  0.2892599999999999  0.72316  0.060349999999999994  1.0000
  H   H30       1.0  0.3498999999999999  0.7457  0.11781999999999997  1.0000
  H   H31       1.0  0.61515  0.28449  0.9092  1.0000
  H   H32       1.0  0.55649  0.4196399999999999  0.92589  1.0000
  H   H33       1.0  0.51154  0.38135  0.98498  1.0000
  H   H34       1.0  0.84793  0.54454  0.90503  1.0000
  H   H35       1.0  0.47299999999999986  0.3429799999999999  0.9237  1.0000
  H   H36       1.0  0.3018  0.43723  0.08749  1.0000
  H   H37       1.0  0.37033  0.30564  0.08098999999999998  1.0000
  H   H38       1.0  0.31417  0.2827099999999999  0.02272  1.0000
  H   H39       1.0  0.25838  0.2866299999999999  0.08364999999999999  1.0000
  H   H40       1.0  0.68131  0.53701  0.9251799999999998  1.0000
  H   H41       1.0  0.7268599999999997  0.71808  0.93946  1.0000
  H   H42       1.0  0.64121  0.67829  0.90115  1.0000
  H   H43       1.0  0.74818  0.65624  0.88227  1.0000
  H   H44       1.0  0.02173  0.8071199999999997  0.58984  1.0000
  H   H45       1.0  0.5435699999999998  0.15161999999999995  0.09552999999999999  1.0000
  H   H46       1.0  0.14163  0.8940699999999998  0.57878  1.0000
  H   H47       1.0  0.16683999999999993  0.8408999999999998  0.51968  1.0000
  H   H48       1.0  0.17595  0.7856299999999998  0.58061  1.0000
  H   H49       1.0  0.98701  0.1948  0.40911  1.0000
  H   H50       1.0  0.8721499999999998  0.10168  0.42201  1.0000
  H   H51       1.0  0.83284  0.20845  0.42105  1.0000
  H   H52       1.0  0.84715  0.15344999999999995  0.48167999999999994  1.0000
  H   H53       1.0  0.21021  0.09822  0.59186  1.0000
  H   H54       1.0  0.14823  0.23048999999999994  0.57444  1.0000
  H   H55       1.0  0.19804999999999995  0.23367  0.51239  1.0000
  H   H56       1.0  0.46155  0.8472199999999998  0.9047  1.0000
  H   H57       1.0  0.2608  0.24307  0.5705  1.0000
  H   H58       1.0  0.7878  0.88831  0.41093  1.0000
  H   H59       1.0  0.82325  0.74396  0.41847999999999996  1.0000
  H   H60       1.0  0.7102  0.7527099999999998  0.41819  1.0000
  H   H61       1.0  0.76672  0.73766  0.47822  1.0000
  H   H62       1.0  0.99173  0.14010999999999996  0.53694  1.0000
  H   H63       1.0  0.9472  0.12177999999999997  0.62244  1.0000
  H   H64       1.0  0.90576  0.22689  0.62421  1.0000
  H   H65       1.0  0.01911  0.20919  0.62633  1.0000
  H   H66       1.0  0.09249  0.79361  0.41064  1.0000
  H   H67       1.0  0.8488899999999998  0.54435  0.09555  1.0000
  H   H68       1.0  0.01258  0.9203899999999998  0.42157  1.0000
  H   H69       1.0  0.96047  0.87426  0.47629  1.0000
  H   H70       1.0  0.94371  0.8320399999999998  0.41203999999999996  1.0000
  H   H71       1.0  0.81343  0.91854  0.57261  1.0000
  H   H72       1.0  0.82804  0.77535  0.60271  1.0000
  H   H73       1.0  0.73403  0.7481099999999998  0.56778  1.0000
  H   H74       1.0  0.72841  0.8193399999999997  0.62221  1.0000
  H   H75       1.0  0.22257  0.12979  0.40794999999999987  1.0000
  H   H76       1.0  0.08904999999999998  0.07049999999999997  0.42455999999999994  1.0000
  H   H77       1.0  0.12393999999999997  0.03481  0.48673  1.0000
  H   H78       1.0  0.14874  0.45012  0.90428  1.0000
  H   H79       1.0  0.16587  0.98707  0.42869  1.0000
  H   H80       1.0  0.97947  0.34582  0.59541  1.0000
  N   N1        1.0  0.59152  0.29557  0.05573999999999999  1.0000
  N   N2        1.0  0.95869  0.19401999999999994  0.4448799999999999  1.0000
  N   N3        1.0  0.21513  0.12120999999999997  0.55479  1.0000
  N   N4        1.0  0.77553  0.8591299999999997  0.44565999999999995  1.0000
  N   N5        1.0  0.96167  0.19050999999999996  0.55397  1.0000
  N   N6        1.0  0.06103  0.80371  0.44487  1.0000
  N   N7        1.0  0.78148  0.87045  0.55448  1.0000
  N   N8        1.0  0.21075999999999995  0.10903  0.44492999999999994  1.0000
  N   N9        1.0  0.42462  0.7002099999999998  0.94519  1.0000
  N   N10       1.0  0.70338  0.5865199999999998  0.05537  1.0000
  N   N11       1.0  0.29025  0.39518  0.9441  1.0000
  N   N12       1.0  0.4199499999999999  0.701  0.05434  1.0000
  N   N13       1.0  0.59156  0.29644  0.94551  1.0000
  N   N14       1.0  0.29491  0.40429  0.053489999999999996  1.0000
  N   N15       1.0  0.7028  0.5877  0.94622  1.0000
  N   N16       1.0  0.05196  0.80561  0.55467  1.0000
  O   O1        1.0  0.5  0.0  0.25  1.0000
  O   O2        1.0  0.5  0.93077  0.6341399999999999  1.0000
  O   O3        1.0  0.93077  0.4999999999999999  0.36586  1.0000
  O   O4        1.0  0.06922999999999997  0.4999999999999999  0.6341399999999999  1.0000
  O   O5        1.0  0.0  0.43076999999999993  0.86586  1.0000
  O   O6        1.0  1.091199489210064e-19  0.5692299999999998  0.13414  1.0000
  O   O7        1.0  0.56923  0.0  0.86586  1.0000
  O   O8        1.0  0.4307699999999999  0.0  0.13414  1.0000
  O   O9        1.0  1.6367992338150959e-19  0.5692299999999998  0.86586  1.0000
  O   O10       1.0  0.0  0.43076999999999993  0.13414  1.0000
  O   O11       1.0  0.4307699999999999  0.0  0.86586  1.0000
  O   O12       1.0  0.5  1.09244271495646e-19  0.7499999999999999  1.0000
  O   O13       1.0  0.56923  0.0  0.13414  1.0000
  O   O14       1.0  0.40255  0.16662999999999994  0.28041  1.0000
  O   O15       1.0  0.5974499999999998  0.8333699999999998  0.71959  1.0000
  O   O16       1.0  0.83337  0.4025499999999999  0.28041  1.0000
  O   O17       1.0  0.16663  0.59745  0.71959  1.0000
  O   O18       1.0  0.5974499999999998  0.8333699999999998  0.28041  1.0000
  O   O19       1.0  0.40255  0.16662999999999994  0.71959  1.0000
  O   O20       1.0  0.16663  0.59745  0.28041  1.0000
  O   O21       1.0  0.83337  0.4025499999999999  0.71959  1.0000
  O   O22       1.0  0.40255  0.8333699999999998  0.71959  1.0000
  O   O23       1.0  2.72799872302516e-20  0.4999999999999999  0.25  1.0000
  O   O24       1.0  0.5974499999999998  0.16662999999999994  0.28041  1.0000
  O   O25       1.0  0.83337  0.59745  0.71959  1.0000
  O   O26       1.0  0.16663  0.4025499999999999  0.28041  1.0000
  O   O27       1.0  0.5974499999999998  0.16662999999999994  0.71959  1.0000
  O   O28       1.0  0.40255  0.8333699999999998  0.28041  1.0000
  O   O29       1.0  0.16663  0.4025499999999999  0.71959  1.0000
  O   O30       1.0  0.83337  0.59745  0.28041  1.0000
  O   O31       1.0  0.90255  0.66663  0.7804099999999999  1.0000
  O   O32       1.0  0.09744999999999997  0.33337  0.21959  1.0000
  O   O33       1.0  0.3333699999999999  0.9025499999999997  0.7804099999999999  1.0000
  O   O34       1.0  5.45599744605032e-20  0.4999999999999999  0.7499999999999999  1.0000
  O   O35       1.0  0.66663  0.09744999999999997  0.21959  1.0000
  O   O36       1.0  0.09744999999999997  0.33337  0.7804099999999999  1.0000
  O   O37       1.0  0.90255  0.66663  0.21959  1.0000
  O   O38       1.0  0.66663  0.09744999999999997  0.7804099999999999  1.0000
  O   O39       1.0  0.3333699999999999  0.9025499999999997  0.21959  1.0000
  O   O40       1.0  0.90255  0.33337  0.21959  1.0000
  O   O41       1.0  0.09744999999999997  0.66663  0.7804099999999999  1.0000
  O   O42       1.0  0.3333699999999999  0.09744999999999997  0.21959  1.0000
  O   O43       1.0  0.66663  0.9025499999999997  0.7804099999999999  1.0000
  O   O44       1.0  0.09744999999999997  0.66663  0.21959  1.0000
  O   O45       1.0  0.5  0.93077  0.36586  1.0000
  O   O46       1.0  0.90255  0.33337  0.7804099999999999  1.0000
  O   O47       1.0  0.66663  0.9025499999999997  0.21959  1.0000
  O   O48       1.0  0.3333699999999999  0.09744999999999997  0.7804099999999999  1.0000
  O   O49       1.0  0.5  0.06923  0.6341399999999999  1.0000
  O   O50       1.0  0.06922999999999997  0.4999999999999999  0.36586  1.0000
  O   O51       1.0  0.93077  0.4999999999999999  0.6341399999999999  1.0000
  O   O52       1.0  0.5  0.06923  0.36586  1.0000
  Zn  Zn1       1.0  0.40105  0.0  0.20667  1.0000
  Zn  Zn2       1.0  0.09895  0.4999999999999999  0.29333  1.0000
  Zn  Zn3       1.0  0.5  0.9010499999999998  0.70667  1.0000
  Zn  Zn4       1.0  0.5  0.09895  0.29333  1.0000
  Zn  Zn5       1.0  0.09895  0.4999999999999999  0.70667  1.0000
  Zn  Zn6       1.0  0.90105  0.4999999999999999  0.29333  1.0000
  Zn  Zn7       1.0  0.5  0.09895  0.70667  1.0000
  Zn  Zn8       1.0  0.5  0.9010499999999998  0.29333  1.0000
  Zn  Zn9       1.0  0.59895  0.0  0.79333  1.0000
  Zn  Zn10      1.0  0.0  0.40105  0.20667  1.0000
  Zn  Zn11      1.0  0.0  0.59895  0.79333  1.0000
  Zn  Zn12      1.0  0.59895  0.0  0.20667  1.0000
  Zn  Zn13      1.0  0.40105  0.0  0.79333  1.0000
  Zn  Zn14      1.0  0.0  0.59895  0.20667  1.0000
  Zn  Zn15      1.0  0.0  0.40105  0.79333  1.0000
  Zn  Zn16      1.0  0.90105  0.4999999999999999  0.70667  1.0000
