data_image0
_chemical_formula_structural       C24H6N2O8Zn2CH3CH3Cl4CH3CH3CH3CH3
_chemical_formula_sum              "C30 H24 N2 O8 Zn2 Cl4"
_cell_length_a       10.23123
_cell_length_b       10.56469
_cell_length_c       10.81292
_cell_angle_alpha    90.77213000000002
_cell_angle_beta     96.76314999999998
_cell_angle_gamma    78.94386

_space_group_name_H-M_alt    "P 1"
_space_group_IT_number       1

loop_
  _space_group_symop_operation_xyz
  'x, y, z'

loop_
  _atom_site_type_symbol
  _atom_site_label
  _atom_site_symmetry_multiplicity
  _atom_site_fract_x
  _atom_site_fract_y
  _atom_site_fract_z
  _atom_site_occupancy
  C   C1        1.0  0.44233000000000006  0.50928  0.26658000000000004  1.0000
  C   C2        1.0  0.55756  0.49393  0.7327900000000002  1.0000
  C   C3        1.0  0.40784999999999993  0.52562  0.13226  1.0000
  C   C4        1.0  0.59252  0.49162  0.8664  1.0000
  C   C5        1.0  0.50993  0.53294  0.06661  1.0000
  C   C6        1.0  0.4950800000000001  0.54708  0.9336800000000001  1.0000
  C   C7        1.0  0.07683  0.47763999999999995  0.49777000000000005  1.0000
  C   C8        1.0  0.93431  0.4893700000000001  0.52618  1.0000
  C   C9        1.0  0.50901  0.25952  0.5181  1.0000
  C   C10       1.0  0.49312  0.74227  0.48968  1.0000
  C   C11       1.0  0.7505800000000001  0.0623  0.46669000000000005  1.0000
  C   C12       1.0  0.2619800000000001  0.93825  0.56822  1.0000
  C   C13       1.0  0.8274900000000001  0.9933899999999999  0.38081  1.0000
  C   C14       1.0  0.18638  0.009159999999999998  0.65394  1.0000
  C   C15       1.0  0.7776  0.8970400000000001  0.30937  1.0000
  C   C16       1.0  0.2346  0.10985  0.71947  1.0000
  C   C17       1.0  0.6541399999999999  0.8669200000000001  0.33249  1.0000
  C   C18       1.0  0.3557400000000001  0.14142999999999997  0.6916400000000003  1.0000
  C   C19       1.0  0.58528  0.9272600000000001  0.4305000000000001  1.0000
  C   C20       1.0  0.42437  0.07688  0.5952  1.0000
  C   C21       1.0  0.62308  0.03719999999999999  0.48359000000000013  1.0000
  C   C22       1.0  0.38775  0.96428  0.54572  1.0000
  C   C23       1.0  0.47891000000000006  0.8818900000000001  0.4762000000000001  1.0000
  C   C24       1.0  0.52875  0.12184  0.54641  1.0000
  H   H1        1.0  0.7925300000000001  0.13475  0.52108  1.0000
  H   H2        1.0  0.21694000000000002  0.86669  0.51595  1.0000
  H   H3        1.0  0.39897  0.59829  0.8893100000000002  1.0000
  H   H4        1.0  0.61167  0.52552  0.11174000000000003  1.0000
  H   H5        1.0  0.8612600000000001  0.4346  0.35786000000000007  1.0000
  H   H6        1.0  0.11463  0.63304  0.59554  1.0000
  N   N1        1.0  0.15730000000000008  0.55139  0.5511200000000002  1.0000
  N   N2        1.0  0.8427000000000001  0.44861  0.4488800000000001  1.0000
  O   O1        1.0  0.56894  0.48966000000000004  0.30753  1.0000
  O   O2        1.0  0.43106  0.51034  0.69247  1.0000
  O   O3        1.0  0.34887999999999997  0.52264  0.34035  1.0000
  O   O4        1.0  0.65112  0.47736000000000006  0.6596500000000001  1.0000
  O   O5        1.0  0.6100300000000001  0.30028  0.48358000000000007  1.0000
  O   O6        1.0  0.38997  0.69972  0.51642  1.0000
  O   O7        1.0  0.3899700000000001  0.33327  0.5164000000000001  1.0000
  O   O8        1.0  0.61003  0.66673  0.48360000000000003  1.0000
  Zn  Zn1       1.0  0.64694  0.47798  0.4780800000000001  1.0000
  Zn  Zn2       1.0  0.35306  0.52202  0.5219200000000002  1.0000
  C   C25       1.0  0.15891  0.18546999999999997  0.81714  1.0000
  H   H7        1.0  0.06148000000000004  0.15767  0.8261300000000003  1.0000
  H   H8        1.0  0.22021000000000004  0.17073  0.9094200000000002  1.0000
  H   H9        1.0  0.13786000000000004  0.28975  0.79256  1.0000
  C   C26       1.0  0.85286  0.8257499999999999  0.20924  1.0000
  H   H10       1.0  0.95216  0.8513100000000001  0.20454  1.0000
  H   H11       1.0  0.87  0.72032  0.22762000000000002  1.0000
  H   H12       1.0  0.7931800000000001  0.84744  0.11684000000000001  1.0000
  Cl  Cl1       1.0  0.97886  0.04094  0.35766  1.0000
  Cl  Cl2       1.0  0.036369999999999986  0.9614200000000002  0.6817000000000001  1.0000
  Cl  Cl3       1.0  0.57207  0.7756200000000001  0.22252  1.0000
  Cl  Cl4       1.0  0.43348  0.24427  0.79301  1.0000
  C   C27       1.0  0.72672  0.41684  0.9240300000000001  1.0000
  H   H13       1.0  0.78436  0.36295  0.85305  1.0000
  H   H14       1.0  0.78681  0.48391999999999996  0.9721500000000002  1.0000
  H   H15       1.0  0.71177  0.3441399999999999  0.9916  1.0000
  C   C28       1.0  0.2654000000000001  0.53325  0.07226  1.0000
  H   H16       1.0  0.19749  0.51904  0.14151  1.0000
  H   H17       1.0  0.22720999999999997  0.62937  0.027720000000000005  1.0000
  H   H18       1.0  0.26197  0.45705  0.0008  1.0000
  C   C29       1.0  0.9048100000000001  0.53074  0.6551900000000002  1.0000
  H   H19       1.0  0.9908  0.55903  0.71333  1.0000
  H   H20       1.0  0.8201199999999998  0.61414  0.65098  1.0000
  H   H21       1.0  0.8852700000000001  0.44681999999999994  0.70471  1.0000
  C   C30       1.0  0.13001  0.36164  0.4219700000000001  1.0000
  H   H22       1.0  0.05227000000000001  0.32311  0.36192  1.0000
  H   H23       1.0  0.19769  0.38448  0.35727  1.0000
  H   H24       1.0  0.17749000000000004  0.2804  0.48575  1.0000
