data_image0
_chemical_formula_structural       Br4C50H32N4O16Zn2
_chemical_formula_sum              "Br4 C50 H32 N4 O16 Zn2"
_cell_length_a       7.75489
_cell_length_b       8.55467
_cell_length_c       27.58037
_cell_angle_alpha    90.01772
_cell_angle_beta     86.62053
_cell_angle_gamma    94.0242

_symmetry_space_group_name_H-M    'P 1'
_symmetry_Int_Tables_number       1

loop_
  _symmetry_equiv_pos_as_xyz
  'x,y,z'

loop_
  _atom_site_type_symbol
  _atom_site_label
  _atom_site_symmetry_multiplicity
  _atom_site_fract_x
  _atom_site_fract_y
  _atom_site_fract_z
  _atom_site_occupancy
  Br  Br1       1.0  0.9097100000000005  0.50342  0.74229  1.0000
  Br  Br2       1.0  0.10803  0.54844  0.2547  1.0000
  Br  Br3       1.0  0.96711  0.82207  0.01707  1.0000
  Br  Br4       1.0  0.43560000000000004  0.9975299999999999  0.99145  1.0000
  C   C1        1.0  0.5461100000000001  0.79482  0.4986400000000001  1.0000
  C   C2        1.0  0.5996500000000002  0.6582  0.12297  1.0000
  C   C3        1.0  0.51063  0.47662  0.6465  1.0000
  C   C4        1.0  0.49410999999999994  0.5303700000000001  0.35354  1.0000
  C   C5        1.0  0.64725  0.6131600000000003  0.02153  1.0000
  C   C6        1.0  0.49159  0.34073  0.9784  1.0000
  C   C7        1.0  0.461  0.36824  0.0287  1.0000
  C   C8        1.0  0.6384  0.60504  0.97047  1.0000
  C   C9        1.0  0.5436200000000002  0.50207  0.05027  1.0000
  C   C10       1.0  0.56365  0.46708  0.9490900000000001  1.0000
  C   C11       1.0  0.74828  0.7314200000000002  0.04525  1.0000
  C   C12       1.0  0.45389000000000007  0.20518000000000006  0.50135  1.0000
  C   C13       1.0  0.45232  0.19375  0.95601  1.0000
  C   C14       1.0  0.71083  0.76411  0.09446  1.0000
  C   C15       1.0  0.45083000000000006  0.18276  0.90517  1.0000
  C   C16       1.0  0.50286  0.4954  0.5939600000000002  1.0000
  C   C17       1.0  0.49775  0.50631  0.40605  1.0000
  C   C18       1.0  0.6872799999999999  0.73562  0.9404200000000001  1.0000
  C   C19       1.0  0.34075  0.27277  0.05765  1.0000
  C   C20       1.0  0.57016  0.95864  0.49783000000000005  1.0000
  C   C21       1.0  0.42984  0.04135  0.50213  1.0000
  C   C22       1.0  0.58803  0.58465  0.81959  1.0000
  C   C23       1.0  0.5578  0.45735000000000003  0.89812  1.0000
  C   C24       1.0  0.41532  0.42589  0.17993  1.0000
  C   C25       1.0  0.50146  0.3115  0.8247200000000001  1.0000
  C   C26       1.0  0.57068  0.67656  0.17354  1.0000
  C   C27       1.0  0.37487  0.41574  0.72622  1.0000
  C   C28       1.0  0.6414800000000003  0.58193  0.27487  1.0000
  C   C29       1.0  0.36166000000000004  0.42927  0.6761899999999998  1.0000
  C   C30       1.0  0.64791  0.571  0.3250199999999999  1.0000
  C   C31       1.0  0.67213  0.49687  0.66695  1.0000
  C   C32       1.0  0.33465  0.5223900000000001  0.33177  1.0000
  C   C33       1.0  0.6853500000000002  0.4776099999999999  0.7165200000000002  1.0000
  C   C34       1.0  0.52153  0.52455  0.10093  1.0000
  C   C35       1.0  0.32865  0.54512  0.28195  1.0000
  C   C36       1.0  0.5352900000000003  0.44179  0.7465  1.0000
  C   C37       1.0  0.48354  0.56634  0.25293  1.0000
  C   C38       1.0  0.82742  0.75836  0.35725  1.0000
  C   C39       1.0  0.99528  0.7898  0.3826  1.0000
  C   C40       1.0  0.17724  0.24045999999999998  0.64646  1.0000
  C   C41       1.0  0.007560000000000002  0.20979  0.62194  1.0000
  C   C42       1.0  0.71752  0.02755  0.10475  1.0000
  C   C43       1.0  0.81334  0.16773  0.12738  1.0000
  C   C44       1.0  0.23205000000000003  0.00958  0.88369  1.0000
  C   C45       1.0  0.60576  0.59131  0.86943  1.0000
  C   C46       1.0  0.19104  0.84436  0.86518  1.0000
  C   C47       1.0  0.42138  0.41206  0.12962  1.0000
  C   C48       1.0  0.66833  0.72981  0.89094  1.0000
  C   C49       1.0  0.329  0.2884  0.10763  1.0000
  C   C50       1.0  0.50113  0.3156600000000001  0.8758899999999998  1.0000
  H   H1        1.0  0.7887100000000001  0.52869  0.64451  1.0000
  H   H2        1.0  0.25057  0.18807000000000004  0.04206  1.0000
  H   H3        1.0  0.7023600000000002  0.010560000000000005  0.49372  1.0000
  H   H4        1.0  0.29764  0.9894299999999999  0.50623  1.0000
  H   H5        1.0  0.71923  0.79402  0.38235  1.0000
  H   H6        1.0  0.8344499999999999  0.832  0.32377  1.0000
  H   H7        1.0  0.10749000000000002  0.76819  0.35727  1.0000
  H   H8        1.0  0.0076200000000000495  0.9138400000000001  0.39454999999999996  1.0000
  H   H9        1.0  0.99605  0.71249  0.41491  1.0000
  H   H10       1.0  0.17057999999999998  0.16935  0.68045  1.0000
  H   H11       1.0  0.28362999999999994  0.20182  0.62125  1.0000
  H   H12       1.0  0.21443  0.49863999999999997  0.35337  1.0000
  H   H13       1.0  0.008629999999999976  0.28201  0.58845  1.0000
  H   H14       1.0  0.9899000000000001  0.0841  0.61203  1.0000
  H   H15       1.0  0.8974500000000001  0.23928  0.64702  1.0000
  H   H16       1.0  0.58062  0.02011  0.11983  1.0000
  H   H17       1.0  0.72019  0.04831  0.06485  1.0000
  H   H18       1.0  0.9486600000000001  0.1801  0.11183  1.0000
  H   H19       1.0  0.7499000000000002  0.2762  0.11937000000000002  1.0000
  H   H20       1.0  0.8131000000000002  0.15226  0.16736999999999996  1.0000
  H   H21       1.0  0.17746000000000003  0.09403  0.8590499999999999  1.0000
  H   H22       1.0  0.16729999999999998  0.018800000000000004  0.92062  1.0000
  H   H23       1.0  0.013679999999999994  0.38421  0.46355  1.0000
  H   H24       1.0  0.24152000000000004  0.7576  0.88972  1.0000
  H   H25       1.0  0.04878  0.82066  0.86401  1.0000
  H   H26       1.0  0.2517900000000001  0.83132  0.82804  1.0000
  H   H27       1.0  0.9863200000000003  0.6158  0.53644  1.0000
  H   H28       1.0  0.7037399999999999  0.83474  0.8696  1.0000
  H   H29       1.0  0.24367  0.20573  0.12892  1.0000
  H   H30       1.0  0.75986  0.60304  0.25263  1.0000
  H   H31       1.0  0.26002  0.3864400000000001  0.74953  1.0000
  H   H32       1.0  0.7292  0.84792  0.95479  1.0000
  N   N1        1.0  0.54253  0.44527  0.79814  1.0000
  N   N2        1.0  0.48453  0.55889  0.20095  1.0000
  N   N3        1.0  0.9503200000000003  0.4579600000000001  0.48688  1.0000
  N   N4        1.0  0.04968  0.54204  0.51312  1.0000
  O   O1        1.0  0.38925  0.73857  0.50322  1.0000
  O   O2        1.0  0.34417  0.30549  0.20773  1.0000
  O   O3        1.0  0.6300000000000001  0.80897  0.19547  1.0000
  O   O4        1.0  0.46204  0.1761  0.80147  1.0000
  O   O5        1.0  0.8057100000000001  0.59756  0.34554  1.0000
  O   O6        1.0  0.20180999999999996  0.4018  0.65695  1.0000
  O   O7        1.0  0.7992  0.89013  0.1156  1.0000
  O   O8        1.0  0.41368  0.03799  0.88432  1.0000
  O   O9        1.0  0.61075  0.26143  0.49678  1.0000
  O   O10       1.0  0.67839  0.71163  0.49481  1.0000
  O   O11       1.0  0.32161  0.28837  0.50519  1.0000
  O   O12       1.0  0.3554400000000001  0.5134400000000001  0.57545  1.0000
  O   O13       1.0  0.64456  0.48655999999999994  0.42455  1.0000
  O   O14       1.0  0.64459  0.48649999999999993  0.56704  1.0000
  O   O15       1.0  0.3554100000000001  0.5134999999999998  0.43296  1.0000
  O   O16       1.0  0.6165100000000001  0.71649  0.7925  1.0000
  Zn  Zn1       1.0  0.3069400000000001  0.51799  0.50562  1.0000
  Zn  Zn2       1.0  0.69306  0.48201  0.49438  1.0000
