data_image0
_chemical_formula_structural       C28H14N2O8Zn2
_chemical_formula_sum              "C28 H14 N2 O8 Zn2"
_cell_length_a       12.85967
_cell_length_b       8.92097
_cell_length_c       8.10198
_cell_angle_alpha    89.98487
_cell_angle_beta     97.43181999999999
_cell_angle_gamma    90.05695

_space_group_name_H-M_alt    "P 1"
_space_group_IT_number       1

loop_
  _space_group_symop_operation_xyz
  'x, y, z'

loop_
  _atom_site_type_symbol
  _atom_site_label
  _atom_site_symmetry_multiplicity
  _atom_site_fract_x
  _atom_site_fract_y
  _atom_site_fract_z
  _atom_site_occupancy
  C   C1        1.0  0.49957  0.21798  0.49990999999999997  1.0000
  C   C2        1.0  0.8711199999999999  0.40221  0.68415  1.0000
  C   C3        1.0  0.13514999999999996  0.44297000000000003  0.56645  1.0000
  C   C4        1.0  0.8648499999999998  0.55705  0.43358  1.0000
  C   C5        1.0  0.028719999999999996  0.45817  0.56416  1.0000
  C   C6        1.0  0.9712799999999998  0.54186  0.43588  1.0000
  C   C7        1.0  0.4998199999999999  0.06521  0.49993999999999994  1.0000
  C   C8        1.0  0.50018  0.93479  0.50006  1.0000
  C   C9        1.0  0.8200599999999998  0.31805  0.80942  1.0000
  C   C10       1.0  0.7507299999999998  0.19979  0.75998  1.0000
  C   C11       1.0  0.7029599999999998  0.12019  0.87856  1.0000
  C   C12       1.0  0.50043  0.78202  0.50009  1.0000
  C   C13       1.0  0.72479  0.15709  0.04712  1.0000
  C   C14       1.0  0.7949999999999999  0.27294  0.09749  1.0000
  C   C15       1.0  0.8427799999999998  0.35312  0.97931  1.0000
  C   C16       1.0  0.17996  0.68194  0.19061  1.0000
  C   C17       1.0  0.15736  0.64672  0.020759999999999994  1.0000
  C   C18       1.0  0.2052  0.72686  0.90259  1.0000
  C   C19       1.0  0.27534999999999993  0.84279  0.9529599999999998  1.0000
  C   C20       1.0  0.2970499999999999  0.87984  0.12148  1.0000
  C   C21       1.0  0.24920999999999993  0.80029  0.24002999999999994  1.0000
  C   C22       1.0  0.29767  0.50406  0.46707  1.0000
  C   C23       1.0  0.7023299999999999  0.49594  0.53293  1.0000
  C   C24       1.0  0.81444  0.48602  0.55415  1.0000
  C   C25       1.0  0.18556  0.51397  0.44585  1.0000
  C   C26       1.0  0.020789999999999993  0.60928  0.31139  1.0000
  C   C27       1.0  0.9792199999999999  0.39075  0.68865  1.0000
  C   C28       1.0  0.12888  0.59779  0.31587  1.0000
  H   H1        1.0  0.8204899999999998  0.62216  0.33531  1.0000
  H   H2        1.0  0.10329999999999999  0.55693  0.98027  1.0000
  H   H3        1.0  0.18781999999999993  0.6995400000000002  0.77193  1.0000
  H   H4        1.0  0.31245  0.90438  0.8613  1.0000
  H   H5        1.0  0.3508  0.9703600000000001  0.16023  1.0000
  H   H6        1.0  0.26609  0.83064  0.3701699999999999  1.0000
  H   H7        1.0  0.17952  0.37785  0.66472  1.0000
  H   H8        1.0  0.97584  0.67432  0.21384  1.0000
  H   H9        1.0  0.024169999999999983  0.32572  0.7862099999999997  1.0000
  H   H10       1.0  0.73375  0.16955  0.6298  1.0000
  H   H11       1.0  0.64915  0.02974  0.8397999999999998  1.0000
  H   H12       1.0  0.6877399999999999  0.09546000000000002  0.13881  1.0000
  H   H13       1.0  0.81249  0.30016  0.22818999999999998  1.0000
  H   H14       1.0  0.8968999999999998  0.44284  0.0198  1.0000
  N   N1        1.0  0.50002  0.5  0.07364  1.0000
  N   N2        1.0  0.49997999999999987  0.5  0.92636  1.0000
  O   O1        1.0  0.49999  0.28534  0.63685  1.0000
  O   O2        1.0  0.50001  0.71466  0.36315  1.0000
  O   O3        1.0  0.50001  0.28534  0.36315  1.0000
  O   O4        1.0  0.49999  0.71466  0.63685  1.0000
  O   O5        1.0  0.34635  0.5  0.61425  1.0000
  O   O6        1.0  0.65365  0.5  0.38574999999999987  1.0000
  O   O7        1.0  0.3463599999999999  0.5  0.3405  1.0000
  O   O8        1.0  0.65364  0.5  0.6595  1.0000
  Zn  Zn1       1.0  0.49998999999999993  0.5  0.68278  1.0000
  Zn  Zn2       1.0  0.50001  0.5  0.31722  1.0000
