data_image0
_chemical_formula_structural       C38H16N4O18Zn2
_chemical_formula_sum              "C38 H16 N4 O18 Zn2"
_cell_length_a       7.72093
_cell_length_b       8.58433
_cell_length_c       23.55734
_cell_angle_alpha    90.85560000000001
_cell_angle_beta     86.02604
_cell_angle_gamma    94.20184999999998

_space_group_name_H-M_alt    "P 1"
_space_group_IT_number       1

loop_
  _space_group_symop_operation_xyz
  'x, y, z'

loop_
  _atom_site_type_symbol
  _atom_site_label
  _atom_site_symmetry_multiplicity
  _atom_site_fract_x
  _atom_site_fract_y
  _atom_site_fract_z
  _atom_site_occupancy
  C   C1        1.0  0.54636  0.79505  0.4984799999999999  1.0000
  C   C2        1.0  0.34088  0.44494  0.3009  1.0000
  C   C3        1.0  0.66434  0.54101  0.7578699999999999  1.0000
  C   C4        1.0  0.33542  0.45879  0.24217  1.0000
  C   C5        1.0  0.5159400000000002  0.4882  0.79128  1.0000
  C   C6        1.0  0.48370000000000013  0.51172  0.20873  1.0000
  C   C7        1.0  0.57057  0.9587599999999998  0.4976  1.0000
  C   C8        1.0  0.42943000000000003  0.04124  0.5024  1.0000
  C   C9        1.0  0.5024499999999998  0.49894  0.61057  1.0000
  C   C10       1.0  0.49754  0.50103  0.38942999999999994  1.0000
  C   C11       1.0  0.4317700000000001  0.37193  0.12079999999999999  1.0000
  C   C12       1.0  0.45364  0.20495  0.50152  1.0000
  C   C13       1.0  0.5676700000000001  0.62809  0.8792  1.0000
  C   C14       1.0  0.53853  0.6402  0.11821999999999999  1.0000
  C   C15       1.0  0.4607400000000002  0.35986  0.8818  1.0000
  C   C16       1.0  0.55276  0.63687  0.05898  1.0000
  C   C17       1.0  0.4463800000000002  0.3632500000000001  0.94104  1.0000
  C   C18       1.0  0.4961  0.50022  0.03  1.0000
  C   C19       1.0  0.5030300000000002  0.49990999999999997  0.97002  1.0000
  C   C20       1.0  0.43254  0.3645  0.0609  1.0000
  C   C21       1.0  0.56663  0.63562  0.93912  1.0000
  C   C22       1.0  0.62269  0.76818  0.02866  1.0000
  C   C23       1.0  0.3646900000000002  0.43563  0.7655599999999999  1.0000
  C   C24       1.0  0.37632  0.23198  0.97137  1.0000
  C   C25       1.0  0.62857  0.77086  0.9695199999999999  1.0000
  C   C26       1.0  0.37041  0.22933  0.030509999999999995  1.0000
  C   C27       1.0  0.70596  0.91737  0.9430499999999999  1.0000
  C   C28       1.0  0.29262  0.083  0.05699  1.0000
  C   C29       1.0  0.20954999999999996  0.34192  0.68194  1.0000
  C   C30       1.0  0.79041  0.65788  0.31799  1.0000
  C   C31       1.0  0.8076800000000001  0.64325  0.66763  1.0000
  C   C32       1.0  0.19236000000000003  0.3564  0.33243  1.0000
  C   C33       1.0  0.63501  0.5643  0.23441  1.0000
  C   C34       1.0  0.36194999999999994  0.42781  0.70653  1.0000
  C   C35       1.0  0.63791  0.57206  0.29344  1.0000
  C   C36       1.0  0.50788  0.494  0.67266  1.0000
  C   C37       1.0  0.4920500000000002  0.50586  0.32734  1.0000
  C   C38       1.0  0.6590200000000004  0.55483  0.69913  1.0000
  H   H1        1.0  0.67205  0.87142  0.0512  1.0000
  H   H2        1.0  0.9860099999999999  0.61771  0.54242  1.0000
  H   H3        1.0  0.83545  0.9622500000000002  0.95313  1.0000
  H   H4        1.0  0.16276  0.03873  0.04709  1.0000
  H   H5        1.0  0.22059  0.29168  0.63948  1.0000
  H   H6        1.0  0.77946  0.70819  0.36044  1.0000
  H   H7        1.0  0.7900300000000002  0.70038  0.62795  1.0000
  H   H8        1.0  0.21011  0.2994  0.37212999999999996  1.0000
  H   H9        1.0  0.32686  0.12877  0.94883  1.0000
  H   H10       1.0  0.2505300000000001  0.3949  0.7920699999999999  1.0000
  H   H11       1.0  0.74909  0.60511  0.20788  1.0000
  H   H12       1.0  0.7811800000000002  0.58039  0.77845  1.0000
  H   H13       1.0  0.21854000000000004  0.41936  0.22162  1.0000
  H   H14       1.0  0.70345  0.01084  0.49303  1.0000
  H   H15       1.0  0.29655  0.98916  0.50697  1.0000
  H   H16       1.0  0.013989999999999999  0.38229  0.45758  1.0000
  N   N1        1.0  0.48276000000000013  0.50835  0.14786  1.0000
  N   N2        1.0  0.51669  0.4916499999999999  0.85216  1.0000
  N   N3        1.0  0.9503300000000002  0.45795  0.48456  1.0000
  N   N4        1.0  0.04967  0.54205  0.51544  1.0000
  O   O1        1.0  0.38925  0.73857  0.50379  1.0000
  O   O2        1.0  0.61687  0.75553  0.8478  1.0000
  O   O3        1.0  0.57868  0.77507  0.14622  1.0000
  O   O4        1.0  0.42056999999999994  0.22498  0.85381  1.0000
  O   O5        1.0  0.6215699999999998  0.9952199999999999  0.91376  1.0000
  O   O6        1.0  0.37699000000000005  0.00466  0.08612  1.0000
  O   O7        1.0  0.07005999999999996  0.32232  0.7096000000000001  1.0000
  O   O8        1.0  0.9299  0.67731  0.29032  1.0000
  O   O9        1.0  0.9514  0.65723  0.68656  1.0000
  O   O10       1.0  0.04863999999999998  0.34215  0.31351  1.0000
  O   O11       1.0  0.6107500000000003  0.26143  0.49621  1.0000
  O   O12       1.0  0.67839  0.71162  0.49389  1.0000
  O   O13       1.0  0.32161000000000006  0.28838  0.50611  1.0000
  O   O14       1.0  0.35540000000000005  0.51352  0.58879  1.0000
  O   O15       1.0  0.6446000000000001  0.4864800000000001  0.41121  1.0000
  O   O16       1.0  0.64455  0.48657  0.5789  1.0000
  O   O17       1.0  0.35545000000000004  0.51343  0.4210999999999999  1.0000
  O   O18       1.0  0.38291  0.24438  0.15219  1.0000
  Zn  Zn1       1.0  0.3069300000000001  0.518  0.50661  1.0000
  Zn  Zn2       1.0  0.69307  0.48199999999999993  0.49338999999999994  1.0000
