data_image0
_chemical_formula_structural       C20H10N2O8Zn2NHCH3NHCH3
_chemical_formula_sum              "C22 H18 N4 O8 Zn2"
_cell_length_a       7.86522
_cell_length_b       8.56843
_cell_length_c       12.49204
_cell_angle_alpha    92.54959999999998
_cell_angle_beta     102.98851
_cell_angle_gamma    93.85436

_symmetry_space_group_name_H-M    'P 1'
_symmetry_Int_Tables_number       1

loop_
  _symmetry_equiv_pos_as_xyz
  'x,y,z'

loop_
  _atom_site_type_symbol
  _atom_site_label
  _atom_site_symmetry_multiplicity
  _atom_site_fract_x
  _atom_site_fract_y
  _atom_site_fract_z
  _atom_site_occupancy
  C   C1        1.0  0.04424000000000003  0.7943500000000002  0.49744  1.0000
  C   C2        1.0  0.41589999999999994  0.56318  0.98722  1.0000
  C   C3        1.0  0.3624999999999999  0.57785  0.87338  1.0000
  C   C4        1.0  0.58675  0.51819  0.02593  1.0000
  C   C5        1.0  0.67548  0.44882  0.95156  1.0000
  C   C6        1.0  0.6281  0.48295  0.84172  1.0000
  C   C7        1.0  0.49235000000000007  0.5801800000000004  0.8114100000000001  1.0000
  C   C8        1.0  0.67667  0.5488000000000002  0.13345  1.0000
  C   C9        1.0  0.89033  0.37058  0.10472  1.0000
  C   C10       1.0  0.18337  0.58095  0.82512  1.0000
  C   C11       1.0  0.06748999999999998  0.9580900000000001  0.49649  1.0000
  C   C12       1.0  0.11349000000000008  0.5299  0.7080600000000002  1.0000
  C   C13       1.0  0.9333300000000001  0.04202  0.50499  1.0000
  C   C14       1.0  0.95602  0.2057  0.50303  1.0000
  C   C15       1.0  0.88931  0.48475  0.29162  1.0000
  C   C16       1.0  0.82215  0.36669  0.99149  1.0000
  C   C17       1.0  0.82352  0.47062  0.17434000000000002  1.0000
  C   C18       1.0  0.07207000000000005  0.62691  0.8917700000000001  1.0000
  C   C19       1.0  0.12963000000000002  0.6348300000000002  0.006  1.0000
  C   C20       1.0  0.29412  0.58546  0.05449  1.0000
  H   H1        1.0  0.99588  0.29974  0.13681  1.0000
  H   H2        1.0  0.80669  0.99113  0.51308  1.0000
  H   H3        1.0  0.47054  0.35724  0.43515  1.0000
  H   H4        1.0  0.52911  0.65076  0.55063  1.0000
  H   H5        1.0  0.71166  0.45702  0.78631  1.0000
  H   H6        1.0  0.88571  0.3044600000000001  0.93597  1.0000
  H   H7        1.0  0.63086  0.63117  0.18676000000000004  1.0000
  H   H8        1.0  0.9392099999999999  0.6514700000000002  0.85591  1.0000
  H   H9        1.0  0.03923  0.66384  0.05621  1.0000
  H   H10       1.0  0.19425  0.008959999999999997  0.4886  1.0000
  N   N1        1.0  0.4348  0.45669000000000004  0.47085  1.0000
  N   N2        1.0  0.5651999999999998  0.54331  0.52915  1.0000
  O   O1        1.0  0.89306  0.73888  0.50715  1.0000
  O   O2        1.0  0.17224999999999996  0.71113  0.4884700000000001  1.0000
  O   O3        1.0  0.9447  0.52073  0.6676  1.0000
  O   O4        1.0  0.2238899999999999  0.49298000000000003  0.64892  1.0000
  O   O5        1.0  0.82775  0.2888700000000001  0.51153  1.0000
  O   O6        1.0  0.10694  0.26112  0.49285  1.0000
  O   O7        1.0  0.7761099999999999  0.50702  0.35108  1.0000
  O   O8        1.0  0.055299999999999995  0.47927  0.33240000000000003  1.0000
  Zn  Zn1       1.0  0.81358  0.51853  0.51247  1.0000
  Zn  Zn2       1.0  0.18642000000000009  0.48147000000000006  0.48753000000000013  1.0000
  N   N3        1.0  0.32817  0.5467200000000001  0.16689000000000007  1.0000
  H   H11       1.0  0.25570000000000004  0.60164  0.21444000000000002  1.0000
  C   C21       1.0  0.34665  0.38196  0.18675000000000003  1.0000
  H   H12       1.0  0.48296  0.36476  0.22884000000000002  1.0000
  H   H13       1.0  0.31062  0.30615  0.10915  1.0000
  H   H14       1.0  0.26423  0.3417  0.24272  1.0000
  N   N4        1.0  0.5087699999999997  0.6993499999999999  0.73708  1.0000
  H   H15       1.0  0.63432  0.7160200000000002  0.72526  1.0000
  C   C22       1.0  0.43772  0.84798  0.7539800000000001  1.0000
  H   H16       1.0  0.29298  0.8340600000000001  0.7381800000000001  1.0000
  H   H17       1.0  0.47186999999999996  0.93129  0.69498  1.0000
  H   H18       1.0  0.49355000000000004  0.8987200000000001  0.8391000000000001  1.0000
