data_image0
_chemical_formula_structural       C54H40I4N4O12Zn2
_chemical_formula_sum              "C54 H40 I4 N4 O12 Zn2"
_cell_length_a       7.74204
_cell_length_b       8.69918
_cell_length_c       27.490039999999997
_cell_angle_alpha    86.78984000000001
_cell_angle_beta     86.27241000000001
_cell_angle_gamma    94.56406

_space_group_name_H-M_alt    "P 1"
_space_group_IT_number       1

loop_
  _space_group_symop_operation_xyz
  'x, y, z'

loop_
  _atom_site_type_symbol
  _atom_site_label
  _atom_site_symmetry_multiplicity
  _atom_site_fract_x
  _atom_site_fract_y
  _atom_site_fract_z
  _atom_site_occupancy
  C   C1        1.0  0.5460000000000003  0.7949199999999997  0.49786  1.0000
  C   C2        1.0  0.56898  0.6923999999999998  0.11783  1.0000
  C   C3        1.0  0.50423  0.4855599999999999  0.64725  1.0000
  C   C4        1.0  0.4994100000000001  0.52629  0.3524099999999999  1.0000
  C   C5        1.0  0.5402600000000002  0.66418  0.01714  1.0000
  C   C6        1.0  0.46085000000000015  0.36502999999999985  0.9831799999999998  1.0000
  C   C7        1.0  0.5017800000000002  0.38089  0.03206  1.0000
  C   C8        1.0  0.49628000000000005  0.6480399999999997  0.96845  1.0000
  C   C9        1.0  0.5314500000000002  0.5303099999999997  0.0493  1.0000
  C   C10       1.0  0.46914000000000006  0.4988099999999999  0.95116  1.0000
  C   C11       1.0  0.60243  0.80681  0.03496  1.0000
  C   C12       1.0  0.45396999999999993  0.20503000000000002  0.50209  1.0000
  C   C13       1.0  0.4038800000000002  0.22205  0.96477  1.0000
  C   C14       1.0  0.6006600000000001  0.8225499999999998  0.08532999999999999  1.0000
  C   C15       1.0  0.41650000000000015  0.20632  0.91433  1.0000
  C   C16       1.0  0.5031100000000002  0.49990999999999997  0.59404  1.0000
  C   C17       1.0  0.4973100000000001  0.50235  0.40576999999999996  1.0000
  C   C18       1.0  0.4645100000000002  0.77521  0.93725  1.0000
  C   C19       1.0  0.5297400000000002  0.2527  0.06332  1.0000
  C   C20       1.0  0.56056  0.95868  0.48797  1.0000
  C   C21       1.0  0.43923000000000006  0.04113000000000001  0.51184  1.0000
  C   C22       1.0  0.41466000000000025  0.5938500000000001  0.8204099999999998  1.0000
  C   C23       1.0  0.44802  0.4832699999999999  0.90117  1.0000
  C   C24       1.0  0.5864800000000002  0.43241  0.17986999999999995  1.0000
  C   C25       1.0  0.47114  0.32913000000000003  0.83161  1.0000
  C   C26       1.0  0.5578800000000003  0.7026299999999998  0.16861999999999996  1.0000
  C   C27       1.0  0.3569000000000002  0.37157  0.7234099999999999  1.0000
  C   C28       1.0  0.66597  0.63206  0.27809  1.0000
  C   C29       1.0  0.36997000000000024  0.39061  0.67258  1.0000
  C   C30       1.0  0.6484400000000002  0.60613  0.32854999999999995  1.0000
  C   C31       1.0  0.63058  0.56672  0.6725699999999998  1.0000
  C   C32       1.0  0.36091000000000023  0.47255  0.3252099999999999  1.0000
  C   C33       1.0  0.62187  0.55012  0.72412  1.0000
  C   C34       1.0  0.55634  0.54558  0.09916999999999997  1.0000
  C   C35       1.0  0.3765  0.49675  0.27375  1.0000
  C   C36       1.0  0.48213  0.45413  0.74943  1.0000
  C   C37       1.0  0.5312300000000002  0.57451  0.2504  1.0000
  C   C38       1.0  0.7584900000000002  0.63907  0.75174  1.0000
  C   C39       1.0  0.9281000000000003  0.56254  0.7503299999999998  1.0000
  C   C40       1.0  0.22752000000000006  0.4417499999999998  0.24365999999999993  1.0000
  C   C41       1.0  0.21728000000000006  0.26782  0.23649999999999993  1.0000
  C   C42       1.0  0.8354500000000002  0.7110499999999998  0.25477  1.0000
  C   C43       1.0  0.85084  0.88436  0.26164  1.0000
  C   C44       1.0  0.20974000000000004  0.26668  0.75075  1.0000
  C   C45       1.0  0.42834000000000005  0.61298  0.87006  1.0000
  C   C46       1.0  0.06255999999999999  0.20488999999999996  0.72062  1.0000
  C   C47       1.0  0.68097  0.02499  0.44364  1.0000
  C   C48       1.0  0.7049300000000002  0.91466  0.40294  1.0000
  C   C49       1.0  0.31818000000000024  0.97424  0.556  1.0000
  C   C50       1.0  0.29350000000000015  0.0838  0.59676  1.0000
  C   C51       1.0  0.5700300000000003  0.41435  0.13036  1.0000
  C   C52       1.0  0.42856000000000016  0.75809  0.8889299999999998  1.0000
  C   C53       1.0  0.5638100000000003  0.26881999999999995  0.11169  1.0000
  C   C54       1.0  0.44805000000000017  0.33742999999999984  0.88226  1.0000
  H   H1        1.0  0.013919999999999997  0.3805299999999998  0.46693  1.0000
  H   H2        1.0  0.53005  0.13873  0.05069  1.0000
  H   H3        1.0  0.9024800000000004  0.4439500000000001  0.7675499999999997  1.0000
  H   H4        1.0  0.9844400000000002  0.5586499999999998  0.7123699999999997  1.0000
  H   H5        1.0  0.02348999999999998  0.6281499999999998  0.77141  1.0000
  H   H6        1.0  0.7806400000000002  0.7608599999999998  0.73696  1.0000
  H   H7        1.0  0.72026  0.64637  0.7907999999999997  1.0000
  H   H8        1.0  0.26423  0.20167999999999997  0.268  1.0000
  H   H9        1.0  0.08038  0.22536999999999996  0.23213999999999999  1.0000
  H   H10       1.0  0.29411  0.24325  0.20285  1.0000
  H   H11       1.0  0.10356000000000003  0.46858  0.26207  1.0000
  H   H12       1.0  0.9858400000000004  0.6182  0.53359  1.0000
  H   H13       1.0  0.23456000000000005  0.50577  0.20737999999999995  1.0000
  H   H14       1.0  0.72794  0.9365999999999999  0.25474  1.0000
  H   H15       1.0  0.8853400000000002  0.90556  0.29927  1.0000
  H   H16       1.0  0.9562400000000002  0.94176  0.23601  1.0000
  H   H17       1.0  0.9452100000000002  0.66121  0.27201  1.0000
  H   H18       1.0  0.8529000000000002  0.69205  0.21527999999999997  1.0000
  H   H19       1.0  0.010260000000000016  0.29858  0.69848  1.0000
  H   H20       1.0  0.10899000000000006  0.11734000000000001  0.6963599999999998  1.0000
  H   H21       1.0  0.9549800000000005  0.14763999999999994  0.74557  1.0000
  H   H22       1.0  0.2641  0.16385  0.76732  1.0000
  H   H23       1.0  0.4088500000000002  0.8592900000000001  0.8658899999999998  1.0000
  H   H24       1.0  0.15172000000000002  0.3292999999999999  0.78097  1.0000
  H   H25       1.0  0.7926300000000003  0.8253499999999998  0.41327  1.0000
  H   H26       1.0  0.57739  0.8598099999999999  0.39395  1.0000
  H   H27       1.0  0.7659300000000001  0.9815999999999999  0.36993  1.0000
  H   H28       1.0  0.6267300000000002  0.12586  0.42541  1.0000
  H   H29       1.0  0.8103000000000002  0.06314  0.45614  1.0000
  H   H30       1.0  0.42106000000000005  0.1384499999999999  0.60581  1.0000
  H   H31       1.0  0.2057000000000001  0.17304  0.58642  1.0000
  H   H32       1.0  0.23238000000000011  0.01648000000000006  0.6297299999999998  1.0000
  H   H33       1.0  0.18913000000000005  0.93599  0.54334  1.0000
  H   H34       1.0  0.57953  0.16661  0.13477  1.0000
  H   H35       1.0  0.3724600000000001  0.8735099999999997  0.5743  1.0000
  H   H36       1.0  0.7552800000000002  0.64638  0.34939  1.0000
  H   H37       1.0  0.27376000000000006  0.33268999999999993  0.65188  1.0000
  H   H38       1.0  0.6408900000000002  0.93311  0.09882999999999997  1.0000
  H   H39       1.0  0.3822600000000002  0.09569999999999997  0.90012  1.0000
  H   H40       1.0  0.4628700000000001  0.8887199999999996  0.9499599999999998  1.0000
  I   I1        1.0  0.8174600000000002  0.73156  0.63294  1.0000
  I   I2        1.0  0.13484000000000004  0.34369  0.3608  1.0000
  I   I3        1.0  0.76323  0.97832  0.99076  1.0000
  I   I4        1.0  0.23366000000000006  0.0533  0.00728  1.0000
  N   N1        1.0  0.45432000000000017  0.4575600000000001  0.80151  1.0000
  N   N2        1.0  0.5612800000000001  0.5716699999999997  0.19854  1.0000
  N   N3        1.0  0.9503200000000003  0.45796  0.48688  1.0000
  N   N4        1.0  0.04968  0.54204  0.51312  1.0000
  O   O1        1.0  0.3892500000000001  0.7385700000000001  0.50322  1.0000
  O   O2        1.0  0.6201200000000001  0.31109  0.20960999999999994  1.0000
  O   O3        1.0  0.54106  0.84034  0.18774  1.0000
  O   O4        1.0  0.5151400000000002  0.19644000000000003  0.8129699999999999  1.0000
  O   O5        1.0  0.61075  0.26143  0.49678  1.0000
  O   O6        1.0  0.6783900000000003  0.7116300000000001  0.4948099999999999  1.0000
  O   O7        1.0  0.32161000000000023  0.28837  0.50519  1.0000
  O   O8        1.0  0.35544000000000003  0.51344  0.5754499999999999  1.0000
  O   O9        1.0  0.6445600000000002  0.48655999999999994  0.42455  1.0000
  O   O10       1.0  0.6445900000000002  0.4865  0.56704  1.0000
  O   O11       1.0  0.35541000000000017  0.5135  0.4329599999999999  1.0000
  O   O12       1.0  0.37566000000000005  0.71309  0.79065  1.0000
  Zn  Zn1       1.0  0.3069400000000001  0.5179899999999997  0.50562  1.0000
  Zn  Zn2       1.0  0.6930600000000002  0.48201  0.4943799999999999  1.0000
