data_image0
_chemical_formula_structural       C88H60N16Ni4
_chemical_formula_sum              "C88 H60 N16 Ni4"
_cell_length_a       15.16468
_cell_length_b       15.101579999999998
_cell_length_c       14.94004
_cell_angle_alpha    108.67601
_cell_angle_beta     109.86112
_cell_angle_gamma    110.69967

_symmetry_space_group_name_H-M    'P 1'
_symmetry_Int_Tables_number       1

loop_
  _symmetry_equiv_pos_as_xyz
  'x,y,z'

loop_
  _atom_site_type_symbol
  _atom_site_label
  _atom_site_symmetry_multiplicity
  _atom_site_fract_x
  _atom_site_fract_y
  _atom_site_fract_z
  _atom_site_occupancy
  C   C1        1.0  0.90926  0.91389  0.71415  1.0000
  C   C2        1.0  0.90717  0.68451  0.44466  1.0000
  C   C3        1.0  0.69955  0.78836  0.19771  1.0000
  C   C4        1.0  0.0925699999999999  0.2980699999999999  0.49514999999999987  1.0000
  C   C5        1.0  0.30206  0.005309999999999991  0.59659  1.0000
  C   C6        1.0  0.63937  0.69153  0.19266999999999998  1.0000
  C   C7        1.0  0.36324999999999996  0.06250999999999998  0.5633099999999999  1.0000
  C   C8        1.0  0.9995700000000001  0.6764300000000002  0.46499999999999997  1.0000
  C   C9        1.0  0.0007999999999999671  0.94642  0.17756  1.0000
  C   C10       1.0  0.4821800000000001  0.67153  0.36962  1.0000
  C   C11       1.0  0.49976  0.7769300000000001  0.40258999999999995  1.0000
  C   C12       1.0  0.0028900000000000405  0.3011600000000001  0.43722  1.0000
  C   C13       1.0  0.52074  0.84153  0.5077  1.0000
  C   C14       1.0  0.5209600000000002  0.79793  0.57794  1.0000
  C   C15       1.0  0.5032800000000002  0.69249  0.54458  1.0000
  C   C16       1.0  0.24364999999999995  0.2201999999999999  0.8123399999999997  1.0000
  C   C17       1.0  0.48422  0.6294500000000001  0.44063  1.0000
  C   C18       1.0  0.4639200000000001  0.97182  0.56204  1.0000
  C   C19       1.0  0.4621300000000001  0.06651  0.57273  1.0000
  C   C20       1.0  0.5436399999999999  0.14992999999999992  0.5737599999999999  1.0000
  C   C21       1.0  0.6258600000000004  0.13593  0.5643  1.0000
  C   C22       1.0  0.62299  0.038439999999999995  0.54742  1.0000
  C   C23       1.0  0.26624000000000003  0.32136000000000015  0.82252  1.0000
  C   C24       1.0  0.5398900000000001  0.9538400000000002  0.5434999999999999  1.0000
  C   C25       1.0  0.5258500000000003  0.2602800000000001  0.48411  1.0000
  C   C26       1.0  0.50843  0.3430300000000001  0.47671999999999987  1.0000
  C   C27       1.0  0.50554  0.4136600000000001  0.56121  1.0000
  C   C28       1.0  0.73686  0.050040000000000015  0.45968  1.0000
  C   C29       1.0  0.5233300000000001  0.40377000000000013  0.65461  1.0000
  C   C30       1.0  0.54512  0.3235400000000001  0.66552  1.0000
  C   C31       1.0  0.54153  0.2480200000000001  0.57684  1.0000
  C   C32       1.0  0.8141  0.12221000000000003  0.08363999999999999  1.0000
  C   C33       1.0  0.8888  0.22137  0.18252  1.0000
  C   C34       1.0  0.7040100000000001  0.02434999999999995  0.5283699999999999  1.0000
  C   C35       1.0  0.85193  0.2842900000000001  0.23267  1.0000
  C   C36       1.0  0.7391600000000003  0.24647000000000002  0.18154  1.0000
  C   C37       1.0  0.66474  0.14729  0.08247999999999997  1.0000
  C   C38       1.0  0.7021900000000002  0.08525000000000002  0.03361  1.0000
  C   C39       1.0  0.9294100000000001  0.4828900000000001  0.35227  1.0000
  C   C40       1.0  0.24293999999999996  0.31167  0.7206299999999999  1.0000
  C   C41       1.0  0.004840000000000012  0.58077  0.45259999999999995  1.0000
  C   C42       1.0  0.08520999999999995  0.58661  0.5412199999999999  1.0000
  C   C43       1.0  0.08818  0.4940400000000001  0.52691  1.0000
  C   C44       1.0  0.009530000000000037  0.39505000000000007  0.42984  1.0000
  C   C45       1.0  0.70116  0.69587  0.28766  1.0000
  C   C46       1.0  0.93097  0.38809  0.33943  1.0000
  C   C47       1.0  0.2758799999999999  0.7337099999999999  0.6956699999999998  1.0000
  C   C48       1.0  0.34884000000000004  0.8258000000000002  0.80056  1.0000
  C   C49       1.0  0.309  0.86806  0.86421  1.0000
  C   C50       1.0  0.19604000000000013  0.8180100000000002  0.82326  1.0000
  C   C51       1.0  0.12261999999999994  0.7261699999999999  0.7181099999999998  1.0000
  C   C52       1.0  0.7442300000000002  0.9634  0.5576899999999999  1.0000
  C   C53       1.0  0.16212  0.6840300000000001  0.6531499999999999  1.0000
  C   C54       1.0  0.35889  0.5197700000000001  0.93549  1.0000
  C   C55       1.0  0.3158900000000001  0.42060000000000003  0.92579  1.0000
  C   C56       1.0  0.30250000000000005  0.09312999999999998  0.5022699999999999  1.0000
  C   C57       1.0  0.4567700000000001  0.61574  0.03819  1.0000
  C   C58       1.0  0.52713  0.60368  0.10988999999999997  1.0000
  C   C59       1.0  0.4004900000000002  0.19997000000000006  0.11527  1.0000
  C   C60       1.0  0.30649  0.10007  0.07216  1.0000
  C   C61       1.0  0.20409999999999998  0.0918  0.03996999999999999  1.0000
  C   C62       1.0  0.19780000000000006  0.18563  0.05534  1.0000
  C   C63       1.0  0.29242000000000007  0.2859500000000001  0.10122999999999999  1.0000
  C   C64       1.0  0.9102000000000002  0.21006000000000002  0.40794  1.0000
  C   C65       1.0  0.39349000000000006  0.29293000000000013  0.12997  1.0000
  C   C66       1.0  0.10539000000000003  0.96507  0.08485999999999998  1.0000
  C   C67       1.0  0.09090000000000002  0.7796500000000001  0.52793  1.0000
  C   C68       1.0  0.005610000000000005  0.90569  0.07666  1.0000
  C   C69       1.0  0.91025  0.8344  0.97178  1.0000
  C   C70       1.0  0.91309  0.8451099999999999  0.8831899999999998  1.0000
  C   C71       1.0  0.007609999999999922  0.92854  0.9002299999999999  1.0000
  C   C72       1.0  0.10593000000000005  0.98886  0.00332  1.0000
  C   C73       1.0  0.8129100000000002  0.68336  0.00046  1.0000
  C   C74       1.0  0.7179199999999999  0.6075600000000001  0.9885199999999997  1.0000
  C   C75       1.0  0.61794  0.59802  0.9301999999999998  1.0000
  C   C76       1.0  0.09117999999999994  0.0013999999999999564  0.8013299999999999  1.0000
  C   C77       1.0  0.6124000000000003  0.6642500000000002  0.88382  1.0000
  C   C78       1.0  0.9093500000000004  0.9352800000000001  0.18711  1.0000
  C   C79       1.0  0.7070100000000001  0.73946  0.8944999999999997  1.0000
  C   C80       1.0  0.8083  0.75015  0.9537599999999999  1.0000
  C   C81       1.0  0.002429999999999846  0.9514699999999999  0.8112299999999998  1.0000
  C   C82       1.0  0.57226  0.32058000000000003  0.7694999999999999  1.0000
  C   C83       1.0  0.6668100000000002  0.31899000000000005  0.82556  1.0000
  C   C84       1.0  0.6930800000000003  0.3188599999999999  0.9247999999999998  1.0000
  C   C85       1.0  0.62577  0.32113  0.96917  1.0000
  C   C86       1.0  0.53175  0.3225599999999999  0.9140599999999998  1.0000
  C   C87       1.0  0.5051600000000003  0.32218000000000013  0.81468  1.0000
  C   C88       1.0  0.09216  0.023789999999999988  0.28115  1.0000
  H   H1        1.0  0.8253700000000002  0.8570899999999999  0.6861999999999998  1.0000
  H   H2        1.0  0.46685  0.62241  0.28897  1.0000
  H   H3        1.0  0.49781000000000003  0.80854  0.34674  1.0000
  H   H4        1.0  0.17675000000000005  0.35129  0.52032  1.0000
  H   H5        1.0  0.5360099999999999  0.8460800000000002  0.6588299999999999  1.0000
  H   H6        1.0  0.5044700000000001  0.6598  0.59945  1.0000
  H   H7        1.0  0.39819000000000015  0.9049400000000002  0.55521  1.0000
  H   H8        1.0  0.6902000000000001  0.19963999999999998  0.56623  1.0000
  H   H9        1.0  0.5230899999999999  0.20305999999999996  0.4156499999999999  1.0000
  H   H10       1.0  0.49465999999999993  0.3508  0.40432999999999997  1.0000
  H   H11       1.0  0.48966  0.47633999999999993  0.5545299999999999  1.0000
  H   H12       1.0  0.32868  0.14661  0.47132999999999997  1.0000
  H   H13       1.0  0.5201400000000003  0.45903  0.71836  1.0000
  H   H14       1.0  0.6445299999999999  0.008519999999999984  0.95704  1.0000
  H   H15       1.0  0.2536899999999999  0.20012  0.8768  1.0000
  H   H16       1.0  0.8430200000000002  0.07396000000000001  0.04586  1.0000
  H   H17       1.0  0.9753100000000002  0.24898000000000006  0.22011999999999998  1.0000
  H   H18       1.0  0.70869  0.29296000000000005  0.21900999999999998  1.0000
  H   H19       1.0  0.57797  0.11846000000000001  0.043659999999999984  1.0000
  H   H20       1.0  0.8700500000000002  0.48087000000000024  0.28456  1.0000
  H   H21       1.0  0.14649999999999996  0.4978  0.59702  1.0000
  H   H22       1.0  0.30775000000000025  0.7019400000000002  0.64692  1.0000
  H   H23       1.0  0.17552000000000012  0.8025400000000003  0.55803  1.0000
  H   H24       1.0  0.43626  0.8643700000000002  0.83246  1.0000
  H   H25       1.0  0.36586999999999986  0.9392899999999998  0.9453799999999998  1.0000
  H   H26       1.0  0.16531999999999988  0.8502399999999999  0.8729699999999998  1.0000
  H   H27       1.0  0.7158700000000002  0.09330999999999995  0.41894999999999993  1.0000
  H   H28       1.0  0.03530000000000008  0.6882500000000003  0.68708  1.0000
  H   H29       1.0  0.33633  0.52899  0.8634  1.0000
  H   H30       1.0  0.33322999999999997  0.41233000000000003  0.99813  1.0000
  H   H31       1.0  0.48049000000000014  0.6951600000000002  0.04440999999999999  1.0000
  H   H32       1.0  0.5068700000000002  0.5247600000000001  0.10364  1.0000
  H   H33       1.0  0.4665200000000001  0.37057  0.16479  1.0000
  H   H34       1.0  0.82443  0.8863  0.12308  1.0000
  H   H35       1.0  0.4790300000000001  0.20574  0.13901  1.0000
  H   H36       1.0  0.31333999999999995  0.029470000000000007  0.06476  1.0000
  H   H37       1.0  0.12015000000000002  0.18149000000000007  0.03437  1.0000
  H   H38       1.0  0.28738  0.35841  0.11532999999999997  1.0000
  H   H39       1.0  0.2512200000000001  0.37468000000000007  0.6991699999999998  1.0000
  H   H40       1.0  0.18201  0.011619999999999969  0.16177999999999998  1.0000
  H   H41       1.0  0.8399400000000002  0.79151  0.80253  1.0000
  H   H42       1.0  0.8901500000000001  0.69052  0.04662  1.0000
  H   H43       1.0  0.72188  0.55647  0.024749999999999994  1.0000
  H   H44       1.0  0.54425  0.53774  0.91913  1.0000
  H   H45       1.0  0.17694  0.05430000000000001  0.30616  1.0000
  H   H46       1.0  0.53458  0.6564900000000002  0.8387199999999999  1.0000
  H   H47       1.0  0.70176  0.7911100000000001  0.8591299999999997  1.0000
  H   H48       1.0  0.7331500000000002  0.93005  0.60959  1.0000
  H   H49       1.0  0.8257500000000002  0.18302000000000004  0.3549  1.0000
  H   H50       1.0  0.17347  0.019850000000000003  0.84858  1.0000
  H   H51       1.0  0.67241  0.6407200000000002  0.3165  1.0000
  H   H52       1.0  0.7209699999999999  0.3194599999999999  0.7933799999999998  1.0000
  H   H53       1.0  0.7661700000000002  0.3180999999999999  0.9678699999999998  1.0000
  H   H54       1.0  0.64688  0.32294  0.04673  1.0000
  H   H55       1.0  0.4802500000000001  0.3251600000000001  0.94904  1.0000
  H   H56       1.0  0.82284  0.61874  0.40110999999999997  1.0000
  H   H57       1.0  0.4330400000000001  0.3242100000000001  0.77308  1.0000
  H   H58       1.0  0.6703000000000001  0.8173500000000005  0.14333  1.0000
  H   H59       1.0  0.32942  0.9803900000000001  0.65586  1.0000
  H   H60       1.0  0.47064000000000017  0.5478700000000001  0.41489  1.0000
  N   N1        1.0  0.94194  0.94458  0.6507799999999999  1.0000
  N   N2        1.0  0.20446000000000003  0.15025000000000002  0.7070899999999999  1.0000
  N   N3        1.0  0.7942700000000003  0.0032400000000000076  0.44642  1.0000
  N   N4        1.0  0.20492  0.20756999999999995  0.6507699999999998  1.0000
  N   N5        1.0  0.7938100000000003  0.9459200000000002  0.50274  1.0000
  N   N6        1.0  0.9436200000000005  0.15259000000000003  0.44642  1.0000
  N   N7        1.0  0.05511  0.0008999999999999899  0.7071  1.0000
  N   N8        1.0  0.79508  0.7924300000000002  0.34923  1.0000
  N   N9        1.0  0.20619  0.05407999999999998  0.49725999999999987  1.0000
  N   N10       1.0  0.05638000000000002  0.84741  0.55358  1.0000
  N   N11       1.0  0.9448900000000002  0.9991000000000002  0.2929  1.0000
  N   N12       1.0  0.058060000000000014  0.05542000000000002  0.34922  1.0000
  N   N13       1.0  0.9432  0.7911  0.49725999999999987  1.0000
  N   N14       1.0  0.7955400000000005  0.8497500000000003  0.29290999999999995  1.0000
  N   N15       1.0  0.2057300000000001  0.99676  0.55358  1.0000
  N   N16       1.0  0.056800000000000045  0.20890000000000006  0.50274  1.0000
  Ni  Ni1       1.0  0.8696900000000001  0.8696900000000001  0.4999999999999999  1.0000
  Ni  Ni2       1.0  0.13030999999999993  0.13030999999999995  0.4999999999999999  1.0000
  Ni  Ni3       1.0  0.12924999999999998  0.99884  0.62917  1.0000
  Ni  Ni4       1.0  0.8707500000000001  0.0011599999999999675  0.37082999999999994  1.0000
