data_image0
_chemical_formula_structural       C32H10N2O8Zn2OHOHNH2NH2OHOHNH2NH2OHOH
_chemical_formula_sum              "C32 H24 N6 O14 Zn2"
_cell_length_a       10.76753
_cell_length_b       10.66234
_cell_length_c       9.83937
_cell_angle_alpha    89.52101000000002
_cell_angle_beta     91.45299999999999
_cell_angle_gamma    89.14525

_symmetry_space_group_name_H-M    'P 1'
_symmetry_Int_Tables_number       1

loop_
  _symmetry_equiv_pos_as_xyz
  'x,y,z'

loop_
  _atom_site_type_symbol
  _atom_site_label
  _atom_site_symmetry_multiplicity
  _atom_site_fract_x
  _atom_site_fract_y
  _atom_site_fract_z
  _atom_site_occupancy
  C   C1        1.0  0.50155  0.26013  0.5004  1.0000
  C   C2        1.0  0.49668000000000007  0.7398600000000001  0.49954  1.0000
  C   C3        1.0  0.87254  0.50196  0.5061  1.0000
  C   C4        1.0  0.12732  0.49829  0.49416  1.0000
  C   C5        1.0  0.9435200000000001  0.4691700000000001  0.62393  1.0000
  C   C6        1.0  0.05623  0.53122  0.37643  1.0000
  C   C7        1.0  0.42645  0.06886  0.40349  1.0000
  C   C8        1.0  0.5685300000000001  0.93153  0.59602  1.0000
  C   C9        1.0  0.41911000000000004  0.9405000000000002  0.40365  1.0000
  C   C10       1.0  0.57288  0.060890000000000014  0.59788  1.0000
  C   C11       1.0  0.4930899999999999  0.87234  0.4994799999999999  1.0000
  C   C12       1.0  0.50107  0.12781000000000003  0.50081  1.0000
  C   C13       1.0  0.52708  0.60631  0.07167  1.0000
  C   C14       1.0  0.4729900000000001  0.39368  0.9283400000000002  1.0000
  C   C15       1.0  0.52721  0.6062400000000001  0.92794  1.0000
  C   C16       1.0  0.47288  0.3937300000000001  0.07206  1.0000
  C   C17       1.0  0.25984000000000007  0.5002  0.49782999999999994  1.0000
  C   C18       1.0  0.7401  0.49993000000000004  0.50222  1.0000
  C   C19       1.0  0.14344  0.71925  0.06264  1.0000
  C   C20       1.0  0.8616700000000002  0.28581  0.9425299999999999  1.0000
  C   C21       1.0  0.10859000000000002  0.69139  0.19656  1.0000
  C   C22       1.0  0.89128  0.31139000000000006  0.8064  1.0000
  C   C23       1.0  0.10741  0.56451  0.24212999999999998  1.0000
  C   C24       1.0  0.89222  0.43766000000000005  0.7587599999999999  1.0000
  C   C25       1.0  0.13771  0.46747000000000005  0.15147  1.0000
  C   C26       1.0  0.86303  0.53602  0.84825  1.0000
  C   C27       1.0  0.17352  0.49744  0.01927  1.0000
  C   C28       1.0  0.8287800000000001  0.50795  0.9814599999999999  1.0000
  C   C29       1.0  0.17792  0.62169  0.9742899999999999  1.0000
  C   C30       1.0  0.8267800000000001  0.38444  0.02916  1.0000
  C   C31       1.0  0.92937  0.53468  0.38526  1.0000
  C   C32       1.0  0.07046  0.46604000000000007  0.61524  1.0000
  H   H1        1.0  0.54979  0.69121  0.87385  1.0000
  H   H2        1.0  0.45031000000000004  0.30877  0.12615  1.0000
  H   H3        1.0  0.19725  0.42325000000000007  0.94964  1.0000
  H   H4        1.0  0.8051100000000001  0.5831  0.04993  1.0000
  H   H5        1.0  0.8748700000000001  0.5637500000000001  0.29602  1.0000
  H   H6        1.0  0.12499  0.43816  0.70491  1.0000
  H   H7        1.0  0.37008  0.12300000000000003  0.33053  1.0000
  H   H8        1.0  0.62551  0.8769200000000001  0.668  1.0000
  H   H9        1.0  0.54935  0.6913200000000002  0.12555  1.0000
  H   H10       1.0  0.45071  0.30866  0.87446  1.0000
  N   N1        1.0  0.4999700000000001  0.49997  0.8572  1.0000
  N   N2        1.0  0.50003  0.5000300000000001  0.1428  1.0000
  O   O1        1.0  0.49999000000000005  0.31675000000000003  0.61462  1.0000
  O   O2        1.0  0.50001  0.68325  0.38538  1.0000
  O   O3        1.0  0.49999000000000005  0.31678  0.38528999999999997  1.0000
  O   O4        1.0  0.50001  0.6832200000000002  0.61471  1.0000
  O   O5        1.0  0.31676  0.5  0.61466  1.0000
  O   O6        1.0  0.68324  0.5  0.38534  1.0000
  O   O7        1.0  0.31676  0.50002  0.38533  1.0000
  O   O8        1.0  0.68324  0.49998000000000004  0.61467  1.0000
  Zn  Zn1       1.0  0.5  0.49998000000000004  0.65312  1.0000
  Zn  Zn2       1.0  0.5  0.50002  0.34687999999999997  1.0000
  O   O9        1.0  0.2146  0.64312  0.84276  1.0000
  H   H11       1.0  0.21648  0.73434  0.82389  1.0000
  O   O10       1.0  0.7920900000000001  0.36468  0.16165  1.0000
  H   H12       1.0  0.78949  0.27371  0.18165  1.0000
  N   N3        1.0  0.14153  0.84684  0.015249999999999998  1.0000
  H   H13       1.0  0.05136  0.8830300000000002  0.0243  1.0000
  H   H14       1.0  0.20098  0.89865  0.07798  1.0000
  N   N4        1.0  0.87113  0.15993  0.99469  1.0000
  H   H15       1.0  0.96188  0.12684  0.98128  1.0000
  H   H16       1.0  0.81074  0.10363  0.9384499999999999  1.0000
  O   O11       1.0  0.07327  0.7905700000000001  0.27755  1.0000
  H   H17       1.0  0.06653  0.76212  0.37293  1.0000
  O   O12       1.0  0.9225400000000001  0.21091  0.72536  1.0000
  H   H18       1.0  0.9244900000000001  0.23814000000000002  0.62912  1.0000
  N   N5        1.0  0.12706  0.33843  0.1928  1.0000
  H   H19       1.0  0.19981  0.31777  0.26201  1.0000
  H   H20       1.0  0.1391  0.2790000000000001  0.11000999999999998  1.0000
  N   N6        1.0  0.8730600000000001  0.6644600000000002  0.80455  1.0000
  H   H21       1.0  0.79882  0.6843800000000001  0.73701  1.0000
  H   H22       1.0  0.86314  0.72503  0.8867499999999999  1.0000
  O   O13       1.0  0.33761  0.8865500000000002  0.3116999999999999  1.0000
  H   H23       1.0  0.3127400000000001  0.80394  0.34737  1.0000
  O   O14       1.0  0.64836  0.12331000000000002  0.68968  1.0000
  H   H24       1.0  0.69286  0.0607  0.7486099999999999  1.0000
