data_image0
_chemical_formula_structural       O24C60H12C12Cr6O2C36H12C2H5C2H5C2H5C2H5C2H5C2H5C2H5C2H5C2H5C2H5C2H5C2H17
_chemical_formula_sum              "O26 C132 H96 Cr6"
_cell_length_a       12.77881
_cell_length_b       12.778810000000002
_cell_length_c       26.98062
_cell_angle_alpha    90.0
_cell_angle_beta     90.0
_cell_angle_gamma    120.00019

_symmetry_space_group_name_H-M    'P 1'
_symmetry_Int_Tables_number       1

loop_
  _symmetry_equiv_pos_as_xyz
  'x,y,z'

loop_
  _atom_site_type_symbol
  _atom_site_label
  _atom_site_symmetry_multiplicity
  _atom_site_fract_x
  _atom_site_fract_y
  _atom_site_fract_z
  _atom_site_occupancy
  O   O1        1.0  0.46087  0.12093  0.8052400000000001  1.0000
  O   O2        1.0  0.66006  0.53913  0.69476  1.0000
  O   O3        1.0  0.87907  0.33994  0.8052400000000001  1.0000
  O   O4        1.0  0.46087  0.12093  0.69476  1.0000
  O   O5        1.0  0.66006  0.53913  0.8052400000000001  1.0000
  O   O6        1.0  0.87907  0.33994  0.69476  1.0000
  O   O7        1.0  0.12093000000000005  0.46087  0.30524  1.0000
  O   O8        1.0  0.5391300000000001  0.66006  0.19476  1.0000
  O   O9        1.0  0.33994  0.87907  0.30524  1.0000
  O   O10       1.0  0.12093000000000005  0.46087  0.19476  1.0000
  O   O11       1.0  0.5391300000000001  0.66006  0.30524  1.0000
  O   O12       1.0  0.33994  0.87907  0.19476  1.0000
  O   O13       1.0  0.49891  0.35047  0.80187  1.0000
  O   O14       1.0  0.8515600000000002  0.50109  0.69813  1.0000
  O   O15       1.0  0.64953  0.14844  0.80187  1.0000
  O   O16       1.0  0.49891  0.35047  0.69813  1.0000
  O   O17       1.0  0.8515600000000002  0.50109  0.80187  1.0000
  O   O18       1.0  0.64953  0.14844  0.69813  1.0000
  O   O19       1.0  0.35047  0.4989100000000001  0.30187  1.0000
  O   O20       1.0  0.5010900000000001  0.8515600000000001  0.19813  1.0000
  O   O21       1.0  0.14844  0.64953  0.30187  1.0000
  O   O22       1.0  0.35047  0.4989100000000001  0.19813  1.0000
  O   O23       1.0  0.5010900000000001  0.8515600000000001  0.30187  1.0000
  O   O24       1.0  0.14844  0.64953  0.19813  1.0000
  C   C1        1.0  0.55738  0.45562  0.82181  1.0000
  C   C2        1.0  0.8912700000000002  0.43754  0.67664  1.0000
  C   C3        1.0  0.54438  0.10176  0.82181  1.0000
  C   C4        1.0  0.5624600000000001  0.45373  0.67664  1.0000
  C   C5        1.0  0.89824  0.44262  0.82181  1.0000
  C   C6        1.0  0.5462700000000001  0.10873  0.67664  1.0000
  C   C7        1.0  0.4556200000000001  0.55738  0.32181  1.0000
  C   C8        1.0  0.43754000000000004  0.8912700000000001  0.17664  1.0000
  C   C9        1.0  0.10176000000000003  0.54438  0.32181  1.0000
  C   C10       1.0  0.45373000000000013  0.56246  0.17664  1.0000
  C   C11       1.0  0.44262000000000007  0.8982399999999999  0.32181  1.0000
  C   C12       1.0  0.10873000000000001  0.54627  0.17664  1.0000
  C   C13       1.0  0.022109999999999998  0.52844  0.97032  1.0000
  C   C14       1.0  0.53495  0.04269  0.52165  1.0000
  C   C15       1.0  0.4715600000000001  0.49367000000000005  0.97032  1.0000
  C   C16       1.0  0.95731  0.49226  0.52165  1.0000
  C   C17       1.0  0.50633  0.97789  0.97032  1.0000
  C   C18       1.0  0.50774  0.46505  0.52165  1.0000
  C   C19       1.0  0.52844  0.02211  0.4703100000000001  1.0000
  C   C20       1.0  0.042690000000000006  0.53495  0.02165  1.0000
  C   C21       1.0  0.4936700000000001  0.47156  0.4703100000000001  1.0000
  C   C22       1.0  0.49226  0.9573100000000001  0.02165  1.0000
  C   C23       1.0  0.9778900000000003  0.50633  0.4703100000000001  1.0000
  C   C24       1.0  0.4650500000000001  0.50774  0.02165  1.0000
  C   C25       1.0  0.9107200000000001  0.63773  0.98083  1.0000
  C   C26       1.0  0.6513200000000002  0.93882  0.53241  1.0000
  C   C27       1.0  0.36227  0.273  0.98083  1.0000
  C   C28       1.0  0.061179999999999984  0.71251  0.53241  1.0000
  C   C29       1.0  0.7270000000000001  0.08928  0.98083  1.0000
  C   C30       1.0  0.28749  0.34868  0.53241  1.0000
  C   C31       1.0  0.63773  0.91072  0.48083  1.0000
  C   C32       1.0  0.9388200000000002  0.65132  0.03241  1.0000
  C   C33       1.0  0.273  0.3622699999999999  0.48083  1.0000
  C   C34       1.0  0.71251  0.06118  0.03241  1.0000
  C   C35       1.0  0.08927999999999998  0.7270000000000001  0.48083  1.0000
  C   C36       1.0  0.34868  0.28749  0.03241  1.0000
  C   C37       1.0  0.92455  0.55644  0.89917  1.0000
  C   C38       1.0  0.5937100000000001  0.01841  0.60465  1.0000
  C   C39       1.0  0.44356000000000007  0.36810999999999994  0.89917  1.0000
  C   C40       1.0  0.9815900000000002  0.5753  0.60465  1.0000
  C   C41       1.0  0.6318900000000002  0.07545  0.89917  1.0000
  C   C42       1.0  0.42470000000000013  0.40629  0.60465  1.0000
  C   C43       1.0  0.55644  0.92455  0.39917000000000014  1.0000
  C   C44       1.0  0.01841999999999999  0.59371  0.10465000000000002  1.0000
  C   C45       1.0  0.36811  0.44356  0.39917000000000014  1.0000
  C   C46       1.0  0.5753000000000001  0.98159  0.10465000000000002  1.0000
  C   C47       1.0  0.07544999999999999  0.63189  0.39917000000000014  1.0000
  C   C48       1.0  0.40629  0.42469999999999997  0.10465000000000002  1.0000
  C   C49       1.0  0.07747  0.53634  0.12416  1.0000
  C   C50       1.0  0.48655  0.95752  0.37005  1.0000
  C   C51       1.0  0.4636500000000001  0.54112  0.12416  1.0000
  C   C52       1.0  0.042480000000000004  0.52903  0.37005  1.0000
  C   C53       1.0  0.4588700000000001  0.92253  0.12416  1.0000
  C   C54       1.0  0.4709700000000001  0.51345  0.37005  1.0000
  C   C55       1.0  0.53634  0.07747  0.62416  1.0000
  C   C56       1.0  0.9575200000000004  0.48655000000000004  0.87005  1.0000
  C   C57       1.0  0.54112  0.46365  0.62416  1.0000
  C   C58       1.0  0.52903  0.04248  0.87005  1.0000
  C   C59       1.0  0.9225300000000002  0.45887  0.62416  1.0000
  C   C60       1.0  0.51345  0.47097  0.87005  1.0000
  H   H1        1.0  0.9884600000000004  0.63738  0.13063  1.0000
  H   H2        1.0  0.5888100000000001  0.87002  0.38199  1.0000
  H   H3        1.0  0.36261  0.35107  0.13063  1.0000
  H   H4        1.0  0.12997000000000003  0.71879  0.38199  1.0000
  H   H5        1.0  0.64893  0.011540000000000002  0.13063  1.0000
  H   H6        1.0  0.2812100000000001  0.41118000000000005  0.38199  1.0000
  H   H7        1.0  0.63738  0.98846  0.63063  1.0000
  H   H8        1.0  0.8700300000000001  0.58882  0.88199  1.0000
  H   H9        1.0  0.3510700000000001  0.36261  0.63063  1.0000
  H   H10       1.0  0.7187900000000003  0.12997  0.88199  1.0000
  H   H11       1.0  0.011539999999999988  0.64893  0.63063  1.0000
  H   H12       1.0  0.4111800000000001  0.28121  0.88199  1.0000
  C   C61       1.0  0.9531900000000001  0.57616  0.9499300000000003  1.0000
  C   C62       1.0  0.59316  0.9986299999999999  0.55313  1.0000
  C   C63       1.0  0.42384  0.37703  0.9499300000000003  1.0000
  C   C64       1.0  0.0013699999999999904  0.59453  0.55313  1.0000
  C   C65       1.0  0.62297  0.04681  0.9499300000000003  1.0000
  C   C66       1.0  0.4054700000000001  0.40684  0.55313  1.0000
  C   C67       1.0  0.5761600000000001  0.95319  0.44993000000000005  1.0000
  C   C68       1.0  0.9986300000000002  0.59316  0.05313  1.0000
  C   C69       1.0  0.37703000000000003  0.42383999999999994  0.44993000000000005  1.0000
  C   C70       1.0  0.59453  0.00137  0.05313  1.0000
  C   C71       1.0  0.04681000000000004  0.62297  0.44993000000000005  1.0000
  C   C72       1.0  0.40684  0.40547  0.05313  1.0000
  Cr  Cr1       1.0  0.4876300000000001  0.24118  0.75  1.0000
  Cr  Cr2       1.0  0.7535500000000002  0.51237  0.75  1.0000
  Cr  Cr3       1.0  0.75882  0.24645000000000003  0.75  1.0000
  Cr  Cr4       1.0  0.24117999999999998  0.48762999999999995  0.25  1.0000
  Cr  Cr5       1.0  0.51237  0.75355  0.25  1.0000
  Cr  Cr6       1.0  0.2464500000000001  0.75882  0.25  1.0000
  O   O25       1.0  0.66667  0.33333  0.75  1.0000
  O   O26       1.0  0.33333  0.66667  0.25  1.0000
  C   C73       1.0  0.032970000000000055  0.44758000000000003  0.88968  1.0000
  C   C74       1.0  0.4821100000000001  0.12318  0.59253  1.0000
  C   C75       1.0  0.55242  0.58539  0.88968  1.0000
  C   C76       1.0  0.8768200000000003  0.35892  0.59253  1.0000
  C   C77       1.0  0.41461  0.9670300000000001  0.88968  1.0000
  C   C78       1.0  0.64107  0.51789  0.59253  1.0000
  C   C79       1.0  0.4475800000000001  0.03297  0.38968  1.0000
  C   C80       1.0  0.12318000000000003  0.48211000000000004  0.09253  1.0000
  C   C81       1.0  0.58539  0.55242  0.38968  1.0000
  C   C82       1.0  0.35892000000000013  0.87682  0.09253  1.0000
  C   C83       1.0  0.9670300000000002  0.41461  0.38969000000000004  1.0000
  C   C84       1.0  0.5178900000000001  0.64108  0.09253  1.0000
  C   C85       1.0  0.06612999999999998  0.46852999999999995  0.93955  1.0000
  C   C86       1.0  0.48145  0.10690000000000001  0.54165  1.0000
  C   C87       1.0  0.53147  0.5976  0.93955  1.0000
  C   C88       1.0  0.8931000000000002  0.37455  0.54165  1.0000
  C   C89       1.0  0.40240000000000004  0.93387  0.93955  1.0000
  C   C90       1.0  0.62545  0.51855  0.54165  1.0000
  C   C91       1.0  0.46853000000000006  0.06613  0.4395500000000001  1.0000
  C   C92       1.0  0.10689999999999998  0.48144999999999993  0.04165  1.0000
  C   C93       1.0  0.5976  0.53147  0.4395500000000001  1.0000
  C   C94       1.0  0.37454999999999994  0.8931  0.04165  1.0000
  C   C95       1.0  0.9338700000000005  0.4024  0.4395500000000001  1.0000
  C   C96       1.0  0.51855  0.62545  0.04165  1.0000
  C   C97       1.0  0.15255000000000002  0.42595000000000005  0.01072  1.0000
  C   C98       1.0  0.4214500000000001  0.1345  0.45991  1.0000
  C   C99       1.0  0.57405  0.72659  0.01072  1.0000
  C   C100      1.0  0.8655000000000003  0.28695  0.45991  1.0000
  C   C101      1.0  0.2734  0.84745  0.01072  1.0000
  C   C102      1.0  0.71305  0.57855  0.45991  1.0000
  C   C103      1.0  0.42596000000000006  0.15255  0.51072  1.0000
  C   C104      1.0  0.13449999999999998  0.42144999999999994  0.95991  1.0000
  C   C105      1.0  0.7265900000000001  0.57405  0.51072  1.0000
  C   C106      1.0  0.2869500000000001  0.8655  0.95991  1.0000
  C   C107      1.0  0.84745  0.27341  0.51072  1.0000
  C   C108      1.0  0.57855  0.71305  0.95991  1.0000
  H   H13       1.0  0.19815000000000008  0.38186000000000003  0.026130000000000007  1.0000
  H   H14       1.0  0.37517  0.16824  0.43692  1.0000
  H   H15       1.0  0.6181400000000001  0.8162900000000001  0.026130000000000007  1.0000
  H   H16       1.0  0.8317600000000002  0.20693  0.43692  1.0000
  H   H17       1.0  0.18371  0.80185  0.026130000000000007  1.0000
  H   H18       1.0  0.79307  0.62483  0.43692  1.0000
  H   H19       1.0  0.38186  0.19815  0.52613  1.0000
  H   H20       1.0  0.16824000000000003  0.37516999999999995  0.93692  1.0000
  H   H21       1.0  0.81629  0.61814  0.52613  1.0000
  H   H22       1.0  0.20693000000000003  0.8317600000000002  0.93692  1.0000
  H   H23       1.0  0.80185  0.18371  0.52614  1.0000
  H   H24       1.0  0.6248300000000001  0.7930699999999999  0.93692  1.0000
  C   C109      1.0  0.9107500000000002  0.73226  0.06479  1.0000
  C   C110      1.0  0.7911000000000002  0.65901  0.09232  1.0000
  H   H25       1.0  0.76846  0.72143  0.11197  1.0000
  H   H26       1.0  0.7176500000000001  0.60301  0.06594  1.0000
  H   H27       1.0  0.7962300000000002  0.59767  0.12  1.0000
  H   H28       1.0  0.98506  0.78448  0.09147000000000001  1.0000
  H   H29       1.0  0.9085400000000002  0.8046000000000001  0.04299  1.0000
  C   C111      1.0  0.6834800000000002  0.83086  0.45929  1.0000
  C   C112      1.0  0.8032899999999998  0.9052699999999999  0.43216  1.0000
  H   H30       1.0  0.8738700000000001  0.9662499999999999  0.45867000000000013  1.0000
  H   H31       1.0  0.8313300000000002  0.84388  0.41532  1.0000
  H   H32       1.0  0.7955800000000002  0.96073  0.4023100000000001  1.0000
  H   H33       1.0  0.6949500000000002  0.77582  0.4879200000000001  1.0000
  H   H34       1.0  0.61481  0.76148  0.43454  1.0000
  C   C113      1.0  0.26774000000000003  0.17849  0.06479  1.0000
  C   C114      1.0  0.34099  0.13209  0.09232  1.0000
  H   H35       1.0  0.27857000000000004  0.04702  0.11197  1.0000
  H   H36       1.0  0.39699000000000007  0.11464  0.06594  1.0000
  H   H37       1.0  0.40232  0.19856  0.12  1.0000
  H   H38       1.0  0.21552  0.20057  0.09147000000000001  1.0000
  H   H39       1.0  0.1954  0.10393999999999999  0.04299  1.0000
  C   C115      1.0  0.16914000000000012  0.85262  0.45929  1.0000
  C   C116      1.0  0.09473000000000006  0.8980200000000002  0.43216  1.0000
  H   H40       1.0  0.033780000000000004  0.90766  0.45868  1.0000
  H   H41       1.0  0.15612000000000004  0.9874300000000001  0.4153  1.0000
  H   H42       1.0  0.039239999999999976  0.83483  0.40232000000000007  1.0000
  H   H43       1.0  0.22417999999999996  0.91914  0.4879100000000001  1.0000
  H   H44       1.0  0.23852000000000007  0.85333  0.43454  1.0000
  C   C117      1.0  0.8215100000000002  0.08925  0.06479  1.0000
  C   C118      1.0  0.86791  0.2089  0.09232  1.0000
  H   H45       1.0  0.88536  0.28235  0.06594  1.0000
  H   H46       1.0  0.8014400000000003  0.20377000000000003  0.12  1.0000
  H   H47       1.0  0.9529700000000002  0.23154  0.11197  1.0000
  H   H48       1.0  0.79943  0.01494  0.09147000000000001  1.0000
  H   H49       1.0  0.8960600000000002  0.09146  0.04299  1.0000
  C   C119      1.0  0.14738  0.31652  0.45929  1.0000
  C   C120      1.0  0.10198000000000003  0.19671  0.43216  1.0000
  H   H50       1.0  0.09234  0.12612  0.45867000000000013  1.0000
  H   H51       1.0  0.012569999999999987  0.16869  0.4153  1.0000
  H   H52       1.0  0.16517000000000007  0.20441000000000004  0.40232000000000007  1.0000
  H   H53       1.0  0.08086000000000002  0.30504  0.4879100000000001  1.0000
  H   H54       1.0  0.14666  0.38518  0.43454  1.0000
  C   C121      1.0  0.7322600000000001  0.91075  0.56479  1.0000
  C   C122      1.0  0.6590200000000002  0.7910999999999999  0.59232  1.0000
  H   H55       1.0  0.59768  0.79623  0.6200000000000001  1.0000
  H   H56       1.0  0.60301  0.71765  0.56594  1.0000
  H   H57       1.0  0.7214400000000002  0.76846  0.61197  1.0000
  H   H58       1.0  0.8046099999999999  0.9085399999999999  0.54299  1.0000
  H   H59       1.0  0.78448  0.9850599999999999  0.59147  1.0000
  C   C123      1.0  0.8308600000000002  0.68348  0.9592900000000002  1.0000
  C   C124      1.0  0.9052700000000002  0.80329  0.93216  1.0000
  H   H60       1.0  0.96076  0.79559  0.9023200000000002  1.0000
  H   H61       1.0  0.8438800000000002  0.83131  0.9153100000000002  1.0000
  H   H62       1.0  0.96622  0.8738800000000001  0.95868  1.0000
  H   H63       1.0  0.76148  0.61481  0.93454  1.0000
  H   H64       1.0  0.7758200000000002  0.69495  0.98791  1.0000
  C   C125      1.0  0.17849  0.26774  0.56479  1.0000
  C   C126      1.0  0.13209000000000004  0.34098  0.59232  1.0000
  H   H65       1.0  0.19855  0.40232  0.6200000000000001  1.0000
  H   H66       1.0  0.11464000000000003  0.39699  0.56594  1.0000
  H   H67       1.0  0.04702  0.27856  0.61197  1.0000
  H   H68       1.0  0.10394  0.19539  0.54299  1.0000
  H   H69       1.0  0.20058  0.21551999999999996  0.59147  1.0000
  C   C127      1.0  0.8526200000000004  0.16914  0.9592900000000002  1.0000
  C   C128      1.0  0.8980200000000002  0.09472  0.93216  1.0000
  H   H70       1.0  0.8348300000000002  0.03924  0.9023200000000002  1.0000
  H   H71       1.0  0.98743  0.15612  0.9153100000000002  1.0000
  H   H72       1.0  0.9076600000000002  0.03378  0.95868  1.0000
  H   H73       1.0  0.8533300000000001  0.23852  0.93454  1.0000
  H   H74       1.0  0.91914  0.22418  0.98791  1.0000
  C   C129      1.0  0.08925000000000011  0.82151  0.56479  1.0000
  C   C130      1.0  0.20890000000000003  0.86791  0.59232  1.0000
  H   H75       1.0  0.20377  0.80145  0.6200000000000001  1.0000
  H   H76       1.0  0.2823500000000001  0.88536  0.56594  1.0000
  H   H77       1.0  0.23154  0.95298  0.61197  1.0000
  H   H78       1.0  0.09145999999999999  0.89606  0.54299  1.0000
  H   H79       1.0  0.01493999999999991  0.7994299999999999  0.59147  1.0000
  C   C131      1.0  0.31652  0.14738  0.9592900000000002  1.0000
  C   C132      1.0  0.19671000000000002  0.10198  0.93216  1.0000
  H   H80       1.0  0.20441000000000004  0.16517  0.9023200000000002  1.0000
  H   H81       1.0  0.16869  0.012570000000000001  0.9153100000000002  1.0000
  H   H82       1.0  0.12612000000000004  0.09234  0.95868  1.0000
  H   H83       1.0  0.38518000000000013  0.14666  0.93454  1.0000
  H   H84       1.0  0.3050400000000001  0.08086  0.98791  1.0000
  H   H85       1.0  0.17384000000000005  0.442  0.10753  1.0000
  H   H86       1.0  0.39486  0.05979  0.36701  1.0000
  H   H87       1.0  0.558  0.7318399999999999  0.10753  1.0000
  H   H88       1.0  0.9402199999999998  0.33507  0.36701  1.0000
  H   H89       1.0  0.26816  0.82616  0.10753  1.0000
  H   H90       1.0  0.6649300000000002  0.60514  0.36701  1.0000
  H   H91       1.0  0.44200000000000006  0.17384  0.6075300000000001  1.0000
  H   H92       1.0  0.05977999999999999  0.39486  0.86701  1.0000
  H   H93       1.0  0.73184  0.558  0.6075300000000001  1.0000
  H   H94       1.0  0.33507  0.94022  0.86701  1.0000
  H   H95       1.0  0.82616  0.26816  0.6075300000000001  1.0000
  H   H96       1.0  0.6051400000000001  0.66493  0.86701  1.0000
