data_image0
_chemical_formula_structural       C22H14N2O8Zn2NHCH3NHCH3NH2NH2NHCH3NHCH3
_chemical_formula_sum              "C26 H34 N8 O8 Zn2"
_cell_length_a       10.65759
_cell_length_b       9.88631
_cell_length_c       10.66759
_cell_angle_alpha    90.12476
_cell_angle_beta     91.17451999999999
_cell_angle_gamma    90.25301

_space_group_name_H-M_alt    "P 1"
_space_group_IT_number       1

loop_
  _space_group_symop_operation_xyz
  'x, y, z'

loop_
  _atom_site_type_symbol
  _atom_site_label
  _atom_site_symmetry_multiplicity
  _atom_site_fract_x
  _atom_site_fract_y
  _atom_site_fract_z
  _atom_site_occupancy
  C   C1        1.0  0.26009  0.49978999999999996  0.50026  1.0000
  C   C2        1.0  0.54651  0.36064  0.9291  1.0000
  C   C3        1.0  0.06538  0.40327  0.57255  1.0000
  C   C4        1.0  0.06294  0.59643  0.43055  1.0000
  C   C5        1.0  0.93649  0.40326  0.57264  1.0000
  C   C6        1.0  0.93431  0.59773  0.43195000000000006  1.0000
  C   C7        1.0  0.8721299999999997  0.50073  0.50245  1.0000
  C   C8        1.0  0.12758  0.49975  0.50124  1.0000
  C   C9        1.0  0.59136  0.07222  0.5628  1.0000
  C   C10       1.0  0.59172  0.92896  0.56222  1.0000
  C   C11       1.0  0.40855  0.92739  0.4350299999999999  1.0000
  C   C12       1.0  0.40769  0.07283  0.43646  1.0000
  C   C13       1.0  0.50503  0.49928  0.25827  1.0000
  C   C14       1.0  0.73978  0.50023  0.50124  1.0000
  C   C15       1.0  0.50443  0.50082  0.74246  1.0000
  C   C16       1.0  0.5946  0.61207  0.07774  1.0000
  C   C17       1.0  0.37159999999999993  0.51831  0.07346  1.0000
  C   C18       1.0  0.60681  0.61104  0.9331000000000002  1.0000
  C   C19       1.0  0.36669  0.53062  0.92862  1.0000
  C   C20       1.0  0.5563399999999998  0.36109  0.07199  1.0000
  C   C21       1.0  0.50712  0.49768  0.12233  1.0000
  C   C22       1.0  0.50555  0.50373  0.8798700000000002  1.0000
  H   H1        1.0  0.68758  0.59976  0.12559  1.0000
  H   H2        1.0  0.31443  0.4306499999999999  0.10521  1.0000
  H   H3        1.0  0.5578  0.71083  0.10958999999999999  1.0000
  H   H4        1.0  0.32977  0.60822  0.11764999999999999  1.0000
  H   H5        1.0  0.65574  0.34619  0.10288999999999998  1.0000
  H   H6        1.0  0.50065  0.27447  0.1081  1.0000
  H   H7        1.0  0.638  0.32931  0.8902099999999998  1.0000
  H   H8        1.0  0.47749  0.28156  0.8990799999999999  1.0000
  H   H9        1.0  0.11636  0.32878  0.62754  1.0000
  H   H10       1.0  0.11156999999999999  0.6683  0.37259  1.0000
  H   H11       1.0  0.88721  0.32887  0.62788  1.0000
  H   H12       1.0  0.88343  0.67178  0.37621999999999994  1.0000
  H   H13       1.0  0.66487  0.12665  0.61322  1.0000
  H   H14       1.0  0.66624  0.8757199999999999  0.61109  1.0000
  N   N1        1.0  0.49996999999999997  0.8571999999999999  0.49997  1.0000
  N   N2        1.0  0.49996999999999997  0.1428  0.49997  1.0000
  O   O1        1.0  0.31675  0.61462  0.49999  1.0000
  O   O2        1.0  0.31675  0.38538  0.49999  1.0000
  O   O3        1.0  0.49996999999999997  0.61467  0.31479  1.0000
  O   O4        1.0  0.49996999999999997  0.38533  0.31479  1.0000
  O   O5        1.0  0.68322  0.61471  0.50001  1.0000
  O   O6        1.0  0.68322  0.38529  0.50001  1.0000
  O   O7        1.0  0.50001  0.61466  0.6852  1.0000
  O   O8        1.0  0.50001  0.38534  0.6852  1.0000
  Zn  Zn1       1.0  0.4999799999999999  0.65312  0.5  1.0000
  Zn  Zn2       1.0  0.4999799999999999  0.34688  0.5  1.0000
  N   N3        1.0  0.31215  0.85329  0.37178  1.0000
  H   H15       1.0  0.22523  0.86571  0.4103399999999999  1.0000
  C   C23       1.0  0.311  0.8589100000000001  0.23628  1.0000
  H   H16       1.0  0.28797  0.96099  0.20114  1.0000
  H   H17       1.0  0.23743  0.7893899999999999  0.19878  1.0000
  H   H18       1.0  0.4035099999999999  0.8295399999999999  0.20022000000000004  1.0000
  N   N4        1.0  0.31682  0.14807  0.36679  1.0000
  H   H19       1.0  0.33733  0.16934  0.27494  1.0000
  C   C24       1.0  0.1856  0.13449  0.39722  1.0000
  H   H20       1.0  0.13808  0.06057  0.33385  1.0000
  H   H21       1.0  0.13847  0.23284  0.38189000000000006  1.0000
  H   H22       1.0  0.17437  0.10394  0.49660999999999994  1.0000
  N   N5        1.0  0.58372  0.74892  0.88411  1.0000
  H   H23       1.0  0.6301  0.76245  0.79983  1.0000
  H   H24       1.0  0.6241199999999999  0.8217799999999998  0.94385  1.0000
  N   N6        1.0  0.31866  0.66574  0.89464  1.0000
  H   H25       1.0  0.31889  0.68151  0.79802  1.0000
  H   H26       1.0  0.36701  0.7434  0.9413899999999998  1.0000
  N   N7        1.0  0.73447  0.5688  0.9009  1.0000
  H   H27       1.0  0.74257  0.525  0.81361  1.0000
  C   C25       1.0  0.83823  0.66074  0.92822  1.0000
  H   H28       1.0  0.92544  0.60158  0.9402800000000001  1.0000
  H   H29       1.0  0.82439  0.71941  0.01552  1.0000
  H   H30       1.0  0.8502299999999999  0.73241  0.8492699999999999  1.0000
  N   N8        1.0  0.27838  0.42823  0.8785  1.0000
  H   H31       1.0  0.29212999999999995  0.39776  0.7875699999999999  1.0000
  C   C26       1.0  0.14579  0.4477300000000001  0.9004000000000001  1.0000
  H   H32       1.0  0.10812  0.52648  0.83597  1.0000
  H   H33       1.0  0.12867  0.47787999999999997  0.99879  1.0000
  H   H34       1.0  0.09446  0.35171  0.88119  1.0000
