data_image0
_chemical_formula_structural       C18H6N2O8Zn2OCH2CH2CH3OCH2CH2CH3OCH2CH2CH3OCH2CH2CH3C2H5C2H5
_chemical_formula_sum              "C34 H44 N2 O12 Zn2"
_cell_length_a       10.95405
_cell_length_b       10.731900000000001
_cell_length_c       9.85204
_cell_angle_alpha    90.40606
_cell_angle_beta     102.22614999999999
_cell_angle_gamma    91.01481

_space_group_name_H-M_alt    "P 1"
_space_group_IT_number       1

loop_
  _space_group_symop_operation_xyz
  'x, y, z'

loop_
  _atom_site_type_symbol
  _atom_site_label
  _atom_site_symmetry_multiplicity
  _atom_site_fract_x
  _atom_site_fract_y
  _atom_site_fract_z
  _atom_site_occupancy
  C   C1        1.0  0.50791  0.26035  0.50196  1.0000
  C   C2        1.0  0.50332  0.74032  0.49960000000000004  1.0000
  C   C3        1.0  0.26162  0.51968  0.44472000000000006  1.0000
  C   C4        1.0  0.7401799999999997  0.51544  0.55775  1.0000
  C   C5        1.0  0.60338  0.46514  0.09599  1.0000
  C   C6        1.0  0.39635  0.53101  0.9047  1.0000
  C   C7        1.0  0.60266  0.4634499999999999  0.95209  1.0000
  C   C8        1.0  0.3958699999999999  0.53053  0.04763  1.0000
  C   C9        1.0  0.13463  0.57706  0.41732  1.0000
  C   C10       1.0  0.87382  0.55915  0.59812  1.0000
  C   C11       1.0  0.07498  0.59724  0.52374  1.0000
  C   C12       1.0  0.93462  0.60121  0.50038  1.0000
  C   C13       1.0  0.51206  0.0663  0.37807  1.0000
  C   C14       1.0  0.53672  0.93526  0.62509  1.0000
  C   C15       1.0  0.5205  0.9387799999999998  0.37293  1.0000
  C   C16       1.0  0.5508  0.06285  0.63202  1.0000
  C   C17       1.0  0.5154  0.87322  0.49709  1.0000
  C   C18       1.0  0.52299  0.12835  0.5055  1.0000
  H   H1        1.0  0.68595  0.43659  0.16921  1.0000
  H   H2        1.0  0.31316  0.55336  0.83269  1.0000
  H   H3        1.0  0.6833  0.4302599999999999  0.9170900000000001  1.0000
  H   H4        1.0  0.31172  0.55295  0.08146000000000003  1.0000
  H   H5        1.0  0.5051499999999999  0.11746  0.2822700000000001  1.0000
  H   H6        1.0  0.54875  0.88408  0.7213100000000001  1.0000
  N   N1        1.0  0.49997  0.49997  0.8572000000000001  1.0000
  N   N2        1.0  0.50003  0.50003  0.1428  1.0000
  O   O1        1.0  0.49998999999999993  0.31675  0.61462  1.0000
  O   O2        1.0  0.50001  0.68325  0.38538000000000006  1.0000
  O   O3        1.0  0.49998999999999993  0.31678  0.3852900000000001  1.0000
  O   O4        1.0  0.50001  0.68322  0.61471  1.0000
  O   O5        1.0  0.3178099999999999  0.5  0.5718500000000001  1.0000
  O   O6        1.0  0.68219  0.5  0.42815000000000003  1.0000
  O   O7        1.0  0.3178099999999999  0.50003  0.34252  1.0000
  O   O8        1.0  0.68219  0.49997  0.65748  1.0000
  Zn  Zn1       1.0  0.5  0.49998  0.65312  1.0000
  Zn  Zn2       1.0  0.5  0.50002  0.3468800000000001  1.0000
  O   O9        1.0  0.8653  0.65771  0.38391  1.0000
  C   C19       1.0  0.88775  0.7885699999999999  0.39659  1.0000
  H   H7        1.0  0.84826  0.83013  0.29443  1.0000
  H   H8        1.0  0.9882099999999999  0.8116800000000001  0.42566  1.0000
  C   C20       1.0  0.82784  0.85149  0.50515  1.0000
  H   H9        1.0  0.7317  0.81802  0.49100000000000005  1.0000
  H   H10       1.0  0.8734799999999999  0.8251299999999999  0.61052  1.0000
  C   C21       1.0  0.83665  0.9934000000000001  0.49764  1.0000
  H   H11       1.0  0.93588  0.024709999999999996  0.51515  1.0000
  H   H12       1.0  0.79458  0.03589  0.5794  1.0000
  H   H13       1.0  0.78713  0.02689  0.39492  1.0000
  O   O10       1.0  0.14424  0.60078  0.65867  1.0000
  C   C22       1.0  0.14889  0.72424  0.71232  1.0000
  H   H14       1.0  0.1644  0.71946  0.82728  1.0000
  H   H15       1.0  0.06045999999999998  0.77243  0.67705  1.0000
  C   C23       1.0  0.25413  0.80358  0.67524  1.0000
  H   H16       1.0  0.34466  0.7741500000000001  0.7391300000000001  1.0000
  H   H17       1.0  0.25547  0.7915999999999999  0.56367  1.0000
  C   C24       1.0  0.23602  0.9413599999999999  0.704  1.0000
  H   H18       1.0  0.14333  0.9719200000000001  0.64636  1.0000
  H   H19       1.0  0.3077599999999999  0.99887  0.66854  1.0000
  H   H20       1.0  0.24341999999999997  0.95782  0.8169  1.0000
  O   O11       1.0  0.93035  0.57956  0.73871  1.0000
  C   C25       1.0  0.85132  0.64875  0.8088600000000002  1.0000
  H   H21       1.0  0.8116299999999999  0.58387  0.8756200000000001  1.0000
  H   H22       1.0  0.77353  0.69563  0.73709  1.0000
  C   C26       1.0  0.91981  0.7520400000000002  0.90353  1.0000
  H   H23       1.0  0.9924799999999999  0.71028  0.98445  1.0000
  H   H24       1.0  0.9643299999999998  0.81996  0.8445200000000002  1.0000
  C   C27       1.0  0.8270799999999998  0.82295  0.9704700000000002  1.0000
  H   H25       1.0  0.7956599999999999  0.76403  0.04927  1.0000
  H   H26       1.0  0.74396  0.84948  0.89129  1.0000
  H   H27       1.0  0.87074  0.91061  0.019890000000000005  1.0000
  O   O12       1.0  0.08300000000000002  0.62379  0.28636000000000006  1.0000
  C   C28       1.0  0.16586  0.71227  0.24249000000000004  1.0000
  H   H28       1.0  0.17616999999999997  0.68349  0.13767  1.0000
  H   H29       1.0  0.26113  0.7192  0.309  1.0000
  C   C29       1.0  0.11370999999999999  0.84423  0.23554  1.0000
  H   H30       1.0  0.012350000000000007  0.83791  0.19661  1.0000
  H   H31       1.0  0.13509  0.88749  0.34075000000000005  1.0000
  C   C30       1.0  0.16709  0.93183  0.14088  1.0000
  H   H32       1.0  0.17531  0.8845700000000001  0.04271  1.0000
  H   H33       1.0  0.25884  0.96923  0.19719000000000006  1.0000
  H   H34       1.0  0.10455  0.01237  0.11440000000000002  1.0000
  C   C31       1.0  0.56268  0.8849  0.24583000000000002  1.0000
  C   C32       1.0  0.45682  0.85577  0.12218  1.0000
  H   H35       1.0  0.495  0.81061  0.03863  1.0000
  H   H36       1.0  0.38768  0.791  0.15196000000000004  1.0000
  H   H37       1.0  0.41196999999999995  0.94313  0.08007  1.0000
  H   H38       1.0  0.62642  0.9531500000000002  0.21023  1.0000
  H   H39       1.0  0.62077  0.80159  0.27005  1.0000
  C   C33       1.0  0.60701  0.12081999999999998  0.77329  1.0000
  C   C34       1.0  0.51025  0.1346  0.8630600000000002  1.0000
  H   H40       1.0  0.55461  0.17954  0.9637100000000001  1.0000
  H   H41       1.0  0.43156  0.19258  0.81078  1.0000
  H   H42       1.0  0.47354  0.04148000000000001  0.88448  1.0000
  H   H43       1.0  0.68242  0.06040999999999999  0.8287500000000002  1.0000
  H   H44       1.0  0.6554699999999999  0.21106  0.76489  1.0000
