data_image0
_chemical_formula_structural       C88H40N32Ni8F8NHCH3NHCH3NHCH3NHCH3NHCH3NHCH3NHCH3NHCH3NHCH3NHCH3NHCH3NHCH3NHCH3NHCH3NHCH3NHCH3
_chemical_formula_sum              "C104 H104 N48 Ni8 F8"
_cell_length_a       19.6469
_cell_length_b       17.114100000000004
_cell_length_c       15.41635
_cell_angle_alpha    89.97551
_cell_angle_beta     52.583960000000005
_cell_angle_gamma    89.96022999999998

_symmetry_space_group_name_H-M    'P 1'
_symmetry_Int_Tables_number       1

loop_
  _symmetry_equiv_pos_as_xyz
  'x,y,z'

loop_
  _atom_site_type_symbol
  _atom_site_label
  _atom_site_symmetry_multiplicity
  _atom_site_fract_x
  _atom_site_fract_y
  _atom_site_fract_z
  _atom_site_occupancy
  C   C1        1.0  0.3814700000000001  0.19962  0.98811  1.0000
  C   C2        1.0  0.6591299999999999  0.82192  0.95733  1.0000
  C   C3        1.0  0.61851  0.1996  0.01183  1.0000
  C   C4        1.0  0.34079000000000004  0.82218  0.04324  1.0000
  C   C5        1.0  0.88165  0.69973  0.98781  1.0000
  C   C6        1.0  0.15942  0.32232  0.95645  1.0000
  C   C7        1.0  0.11892  0.69949  0.01164  1.0000
  C   C8        1.0  0.84066  0.3223  0.04347  1.0000
  C   C9        1.0  0.23935000000000003  0.22101  0.56119  1.0000
  C   C10       1.0  0.6668700000000001  0.72846  0.45664  1.0000
  C   C11       1.0  0.76092  0.22065  0.43848  1.0000
  C   C12       1.0  0.34261  0.71525  0.53199  1.0000
  C   C13       1.0  0.7364100000000001  0.71669  0.56372  1.0000
  C   C14       1.0  0.16471  0.22468  0.45999  1.0000
  C   C15       1.0  0.25722  0.7289  0.44554  1.0000
  C   C16       1.0  0.8348800000000001  0.22508  0.5405  1.0000
  C   C17       1.0  0.16721000000000003  0.75596  0.12206999999999998  1.0000
  C   C18       1.0  0.70022  0.32342  0.06314  1.0000
  C   C19       1.0  0.83398  0.75713  0.87731  1.0000
  C   C20       1.0  0.30002000000000006  0.32353  0.9363799999999999  1.0000
  C   C21       1.0  0.66696  0.25635  0.12178  1.0000
  C   C22       1.0  0.19975000000000007  0.82339  0.06418  1.0000
  C   C23       1.0  0.33325000000000005  0.25644  0.87783  1.0000
  C   C24       1.0  0.7997899999999999  0.82359  0.9371  1.0000
  C   C25       1.0  0.39445  0.80152  0.21247  1.0000
  C   C26       1.0  0.65264  0.17066  0.77918  1.0000
  C   C27       1.0  0.6066000000000001  0.80174  0.78712  1.0000
  C   C28       1.0  0.3473300000000001  0.17069  0.22082999999999997  1.0000
  C   C29       1.0  0.8936299999999999  0.30173  0.21277  1.0000
  C   C30       1.0  0.15328000000000003  0.66988  0.7791999999999999  1.0000
  C   C31       1.0  0.10634000000000002  0.3017  0.78729  1.0000
  C   C32       1.0  0.8470699999999999  0.6704  0.2205  1.0000
  C   C33       1.0  0.3281600000000001  0.91542  0.9543899999999997  1.0000
  C   C34       1.0  0.62742  0.1143  0.11081  1.0000
  C   C35       1.0  0.67115  0.91465  0.04723999999999999  1.0000
  C   C36       1.0  0.37267000000000006  0.11436  0.88906  1.0000
  C   C37       1.0  0.82817  0.41547  0.9544  1.0000
  C   C38       1.0  0.12743  0.61414  0.11089  1.0000
  C   C39       1.0  0.17188000000000003  0.41548  0.04546999999999999  1.0000
  C   C40       1.0  0.8725699999999998  0.61444  0.88913  1.0000
  C   C41       1.0  0.35620999999999997  0.07844  0.31658  1.0000
  C   C42       1.0  0.5998000000000001  0.89442  0.69117  1.0000
  C   C43       1.0  0.6438  0.07848  0.68341  1.0000
  C   C44       1.0  0.40153000000000005  0.89415  0.30811  1.0000
  C   C45       1.0  0.8555399999999999  0.57803  0.3163  1.0000
  C   C46       1.0  0.09948  0.3944  0.69137  1.0000
  C   C47       1.0  0.14379999999999996  0.57832  0.68337  1.0000
  C   C48       1.0  0.9004500000000001  0.3944  0.30868  1.0000
  C   C49       1.0  0.3590500000000001  0.19298  0.9189099999999999  1.0000
  C   C50       1.0  0.7141599999999999  0.85167  0.97732  1.0000
  C   C51       1.0  0.64104  0.19292  0.0809  1.0000
  C   C52       1.0  0.28506000000000004  0.85237  0.02448  1.0000
  C   C53       1.0  0.8592100000000003  0.69317  0.91868  1.0000
  C   C54       1.0  0.21500000000000002  0.35254  0.97529  1.0000
  C   C55       1.0  0.1413  0.69271  0.08092  1.0000
  C   C56       1.0  0.78511  0.35251  0.02453  1.0000
  C   C57       1.0  0.38130000000000003  0.81793  0.30871999999999994  1.0000
  C   C58       1.0  0.69403  0.13742  0.6771  1.0000
  C   C59       1.0  0.62094  0.8183699999999999  0.69022  1.0000
  C   C60       1.0  0.30596  0.13744  0.32293  1.0000
  C   C61       1.0  0.87949  0.3184  0.30949  1.0000
  C   C62       1.0  0.19435000000000013  0.63703  0.6768699999999997  1.0000
  C   C63       1.0  0.12042  0.31837  0.69059  1.0000
  C   C64       1.0  0.80508  0.63684  0.32247  1.0000
  C   C65       1.0  0.20375000000000004  0.14866  0.5397199999999999  1.0000
  C   C66       1.0  0.70426  0.79759  0.48114999999999997  1.0000
  C   C67       1.0  0.79673  0.14858  0.46026  1.0000
  C   C68       1.0  0.31141  0.79356  0.51532  1.0000
  C   C69       1.0  0.69893  0.64745  0.53968  1.0000
  C   C70       1.0  0.20020000000000002  0.29699  0.48199999999999993  1.0000
  C   C71       1.0  0.28869  0.65081  0.46129  1.0000
  C   C72       1.0  0.7991699999999999  0.29711  0.51819  1.0000
  C   C73       1.0  0.6215900000000001  0.69872  0.57458  1.0000
  C   C74       1.0  0.2798900000000001  0.25062  0.44588999999999995  1.0000
  C   C75       1.0  0.37497  0.68953  0.41646  1.0000
  C   C76       1.0  0.71986  0.25035  0.55387  1.0000
  C   C77       1.0  0.12334  0.19589  0.57737  1.0000
  C   C78       1.0  0.78086  0.74727  0.44785999999999987  1.0000
  C   C79       1.0  0.8767700000000002  0.1962  0.4230199999999999  1.0000
  C   C80       1.0  0.22581  0.75563  0.55872  1.0000
  C   C81       1.0  0.65845  0.76632  0.5981799999999999  1.0000
  C   C82       1.0  0.24598000000000003  0.17949  0.42306  1.0000
  C   C83       1.0  0.3440200000000001  0.76596  0.40074  1.0000
  C   C84       1.0  0.75399  0.17949  0.577  1.0000
  C   C85       1.0  0.15833999999999998  0.26657  0.59848  1.0000
  C   C86       1.0  0.7451300000000001  0.67916  0.42256  1.0000
  C   C87       1.0  0.84155  0.2666  0.40161  1.0000
  C   C88       1.0  0.25548  0.67869  0.5763  1.0000
  H   H1        1.0  0.39458  0.74409  0.18339  1.0000
  H   H2        1.0  0.6731  0.22119  0.7997  1.0000
  H   H3        1.0  0.6061799999999999  0.74423  0.81626  1.0000
  H   H4        1.0  0.32683000000000006  0.22124  0.20031999999999997  1.0000
  H   H5        1.0  0.89377  0.24427  0.18377  1.0000
  H   H6        1.0  0.17453000000000002  0.71968  0.79982  1.0000
  H   H7        1.0  0.10620000000000004  0.24424  0.8163299999999999  1.0000
  H   H8        1.0  0.82675  0.721  0.19983  1.0000
  H   H9        1.0  0.30632  0.95432  0.92074  1.0000
  H   H10       1.0  0.62783  0.08779  0.17407999999999998  1.0000
  H   H11       1.0  0.69297  0.95296  0.08148  1.0000
  H   H12       1.0  0.37236  0.08788  0.82573  1.0000
  H   H13       1.0  0.8062299999999999  0.45424  0.92073  1.0000
  H   H14       1.0  0.12764000000000003  0.58757  0.17428  1.0000
  H   H15       1.0  0.19382000000000002  0.45427  0.07907  1.0000
  H   H16       1.0  0.87174  0.58789  0.82623  1.0000
  H   H17       1.0  0.34525  0.04426  0.38288  1.0000
  H   H18       1.0  0.59362  0.92275  0.63355  1.0000
  H   H19       1.0  0.65476  0.04443  0.61704  1.0000
  H   H20       1.0  0.40789000000000003  0.92272  0.36539  1.0000
  H   H21       1.0  0.8441999999999998  0.54388  0.3828399999999999  1.0000
  H   H22       1.0  0.09326000000000005  0.42278  0.63384  1.0000
  H   H23       1.0  0.15462000000000006  0.54408  0.61725  1.0000
  H   H24       1.0  0.9065899999999999  0.42278  0.36626  1.0000
  H   H25       1.0  0.20396999999999998  0.0872  0.56259  1.0000
  H   H26       1.0  0.7081699999999999  0.85946  0.45681  1.0000
  H   H27       1.0  0.7969399999999999  0.08705  0.43735  1.0000
  H   H28       1.0  0.31902  0.85254  0.53833  1.0000
  H   H29       1.0  0.6956800000000002  0.5853  0.56259  1.0000
  H   H30       1.0  0.20046999999999998  0.35817  0.45782999999999996  1.0000
  H   H31       1.0  0.2812000000000001  0.59161  0.4387099999999999  1.0000
  H   H32       1.0  0.79844  0.35836  0.54241  1.0000
  H   H33       1.0  0.2688999999999999  0.22014  0.60377  1.0000
  H   H34       1.0  0.63893  0.73151  0.41218  1.0000
  H   H35       1.0  0.7316500000000001  0.21949  0.3955499999999999  1.0000
  H   H36       1.0  0.37674000000000013  0.70751  0.56804  1.0000
  H   H37       1.0  0.7635400000000001  0.7119899999999999  0.60896  1.0000
  H   H38       1.0  0.135  0.22424  0.41766  1.0000
  H   H39       1.0  0.22256  0.73513  0.40991  1.0000
  H   H40       1.0  0.8643299999999999  0.22495  0.58316  1.0000
  N   N1        1.0  0.40867999999999993  0.13081  0.99578  1.0000
  N   N2        1.0  0.59132  0.86919  0.00422  1.0000
  N   N3        1.0  0.59132  0.13081  0.00422  1.0000
  N   N4        1.0  0.40867999999999993  0.86919  0.99578  1.0000
  N   N5        1.0  0.90868  0.63081  0.99578  1.0000
  N   N6        1.0  0.09132  0.36919  0.00422  1.0000
  N   N7        1.0  0.09132  0.63081  0.00422  1.0000
  N   N8        1.0  0.9086799999999998  0.36919  0.99578  1.0000
  N   N9        1.0  0.42141  0.86721  0.15362  1.0000
  N   N10       1.0  0.5785900000000003  0.13279  0.8463799999999998  1.0000
  N   N11       1.0  0.5785900000000002  0.86721  0.8463799999999998  1.0000
  N   N12       1.0  0.42141  0.13279  0.15362  1.0000
  N   N13       1.0  0.92141  0.36721  0.15362  1.0000
  N   N14       1.0  0.07859000000000013  0.63279  0.8463799999999998  1.0000
  N   N15       1.0  0.07859000000000013  0.36721  0.8463799999999998  1.0000
  N   N16       1.0  0.92141  0.63279  0.15362  1.0000
  N   N17       1.0  0.40384  0.92191  0.93576  1.0000
  N   N18       1.0  0.59616  0.07809  0.06424  1.0000
  N   N19       1.0  0.59616  0.92191  0.06424  1.0000
  N   N20       1.0  0.40384000000000003  0.07809  0.93576  1.0000
  N   N21       1.0  0.9038400000000001  0.42191  0.93576  1.0000
  N   N22       1.0  0.09616  0.57809  0.06424  1.0000
  N   N23       1.0  0.09616000000000001  0.42191  0.06424  1.0000
  N   N24       1.0  0.9038400000000001  0.57809  0.93576  1.0000
  N   N25       1.0  0.4262500000000001  0.0761  0.21365  1.0000
  N   N26       1.0  0.5737500000000002  0.9239  0.7863499999999999  1.0000
  N   N27       1.0  0.57375  0.0761  0.7863499999999999  1.0000
  N   N28       1.0  0.4262500000000001  0.9239  0.21365  1.0000
  N   N29       1.0  0.9262500000000001  0.5761  0.21365  1.0000
  N   N30       1.0  0.07375000000000007  0.4239  0.7863499999999999  1.0000
  N   N31       1.0  0.07375000000000005  0.5761  0.7863499999999999  1.0000
  N   N32       1.0  0.9262500000000001  0.4239  0.21365  1.0000
  Ni  Ni1       1.0  0.5  0.13157  0.0  1.0000
  Ni  Ni2       1.0  0.5  0.86843  0.0  1.0000
  Ni  Ni3       1.0  0.0  0.63157  0.0  1.0000
  Ni  Ni4       1.0  0.0  0.36843  0.0  1.0000
  Ni  Ni5       1.0  0.4889000000000001  7.918926745120483e-22  0.8623099999999998  1.0000
  Ni  Ni6       1.0  0.5111  0.0  0.13769  1.0000
  Ni  Ni7       1.0  0.9889000000000002  0.5  0.8623099999999998  1.0000
  Ni  Ni8       1.0  0.011100000000000004  0.5  0.13769  1.0000
  F   F1        1.0  0.40506  0.26552  0.0116  1.0000
  F   F2        1.0  0.66459  0.7521  0.9126  1.0000
  F   F3        1.0  0.59471  0.26551  0.98851  1.0000
  F   F4        1.0  0.33692000000000005  0.75157  0.08529  1.0000
  F   F5        1.0  0.9053900000000001  0.7658  0.01081  1.0000
  F   F6        1.0  0.1636  0.25171  0.91425  1.0000
  F   F7        1.0  0.09660999999999997  0.76564  0.98679  1.0000
  F   F8        1.0  0.8365700000000001  0.25167  0.08563  1.0000
  N   N33       1.0  0.5336700000000002  0.67225  0.64755  1.0000
  H   H41       1.0  0.5192200000000001  0.64589  0.71706  1.0000
  C   C89       1.0  0.47003  0.72868  0.6698799999999999  1.0000
  H   H42       1.0  0.40629000000000004  0.70001  0.7161699999999999  1.0000
  H   H43       1.0  0.48553  0.75203  0.59252  1.0000
  H   H44       1.0  0.46659  0.77757  0.71978  1.0000
  N   N34       1.0  0.36475  0.28457  0.37337  1.0000
  H   H45       1.0  0.38212000000000007  0.29987  0.2977099999999999  1.0000
  C   C90       1.0  0.43202000000000007  0.24747999999999998  0.37082  1.0000
  H   H46       1.0  0.4918600000000001  0.28142  0.31693  1.0000
  H   H47       1.0  0.44379  0.18728  0.3383  1.0000
  H   H48       1.0  0.41546  0.24639  0.4536099999999999  1.0000
  N   N35       1.0  0.45719  0.65385  0.33499  1.0000
  H   H49       1.0  0.4627800000000001  0.63463  0.26754  1.0000
  C   C91       1.0  0.5308  0.69785  0.30716  1.0000
  H   H50       1.0  0.5899  0.66307  0.2504  1.0000
  H   H51       1.0  0.5257  0.71045  0.38157  1.0000
  H   H52       1.0  0.5361  0.75355  0.2664  1.0000
  N   N36       1.0  0.6347800000000001  0.28397  0.6261  1.0000
  H   H53       1.0  0.61697  0.29912  0.70202  1.0000
  C   C92       1.0  0.568  0.24669  0.62783  1.0000
  H   H54       1.0  0.5079000000000002  0.28032  0.68173  1.0000
  H   H55       1.0  0.5565500000000001  0.18637  0.65987  1.0000
  H   H56       1.0  0.58491  0.24590999999999996  0.54486  1.0000
  N   N37       1.0  0.036970000000000086  0.1662  0.65295  1.0000
  H   H57       1.0  0.025269999999999987  0.14186  0.72203  1.0000
  C   C93       1.0  0.97  0.21882  0.6766599999999999  1.0000
  H   H58       1.0  0.9076000000000002  0.18768  0.7255099999999998  1.0000
  H   H59       1.0  0.9825500000000001  0.2395  0.59987  1.0000
  H   H60       1.0  0.96568  0.26977  0.72441  1.0000
  N   N38       1.0  0.8673200000000001  0.77817  0.37756  1.0000
  H   H61       1.0  0.8875500000000001  0.79333  0.30053  1.0000
  C   C94       1.0  0.9312500000000001  0.73864  0.37976999999999994  1.0000
  H   H62       1.0  0.99257  0.77068  0.3272299999999999  1.0000
  H   H63       1.0  0.94163  0.67825  0.3483399999999999  1.0000
  H   H64       1.0  0.91212  0.7376599999999999  0.46385  1.0000
  N   N39       1.0  0.96335  0.16683  0.3478  1.0000
  H   H65       1.0  0.9754199999999998  0.14227  0.27864  1.0000
  C   C95       1.0  0.029890000000000007  0.21986  0.32433  1.0000
  H   H66       1.0  0.09246000000000001  0.18893  0.27593  1.0000
  H   H67       1.0  0.01689000000000002  0.24091  0.4012299999999999  1.0000
  H   H68       1.0  0.034170000000000006  0.27055  0.2762  1.0000
  N   N40       1.0  0.14532999999999996  0.7954899999999999  0.63659  1.0000
  H   H69       1.0  0.13518999999999998  0.81048  0.70834  1.0000
  C   C96       1.0  0.07102999999999998  0.7639599999999999  0.65065  1.0000
  H   H70       1.0  0.013529999999999971  0.79693  0.71571  1.0000
  H   H71       1.0  0.061149999999999996  0.70181  0.67542  1.0000
  H   H72       1.0  0.07822000000000001  0.76974  0.57374  1.0000
  N   N41       1.0  0.1748  0.73865  0.20687999999999998  1.0000
  H   H73       1.0  0.16369999999999998  0.68232  0.23582  1.0000
  C   C97       1.0  0.15042  0.79844  0.28789  1.0000
  H   H74       1.0  0.20599999999999993  0.81215  0.28703  1.0000
  H   H75       1.0  0.09730000000000001  0.77674  0.37051  1.0000
  H   H76       1.0  0.12888  0.85318  0.27258  1.0000
  N   N42       1.0  0.6545  0.36673  0.03472  1.0000
  H   H77       1.0  0.6915799999999999  0.38971  0.95694  1.0000
  C   C98       1.0  0.59379  0.42224  0.11665  1.0000
  H   H78       1.0  0.55876  0.45097  0.08978  1.0000
  H   H79       1.0  0.62771  0.46771999999999997  0.1287  1.0000
  H   H80       1.0  0.54625  0.39207  0.19522  1.0000
  N   N43       1.0  0.8281800000000001  0.74107  0.79066  1.0000
  H   H81       1.0  0.85012  0.68722  0.75409  1.0000
  C   C99       1.0  0.85429  0.8031  0.71196  1.0000
  H   H82       1.0  0.8407400000000002  0.78554  0.65466  1.0000
  H   H83       1.0  0.9239200000000001  0.81436  0.66416  1.0000
  H   H84       1.0  0.8185300000000001  0.85792  0.7524499999999998  1.0000
  N   N44       1.0  0.34589  0.36687  0.96448  1.0000
  H   H85       1.0  0.30894  0.39044999999999996  0.04189999999999999  1.0000
  C   C100      1.0  0.4073399999999999  0.42154  0.8817699999999999  1.0000
  H   H86       1.0  0.4423800000000001  0.45033  0.90853  1.0000
  H   H87       1.0  0.37406  0.46706  0.86862  1.0000
  H   H88       1.0  0.45478  0.39063  0.8038199999999999  1.0000
  N   N45       1.0  0.67408  0.23931  0.20704999999999998  1.0000
  H   H89       1.0  0.6629200000000001  0.18302  0.23613999999999993  1.0000
  C   C101      1.0  0.64877  0.29909  0.28838  1.0000
  H   H90       1.0  0.70248  0.31028  0.29225  1.0000
  H   H91       1.0  0.59259  0.27868  0.36985999999999997  1.0000
  H   H92       1.0  0.6313499999999999  0.35499  0.26978  1.0000
  N   N46       1.0  0.15249  0.86724  0.03846  1.0000
  H   H93       1.0  0.18831000000000003  0.89573  0.9644  1.0000
  C   C102      1.0  0.08492  0.91506  0.12684  1.0000
  H   H94       1.0  0.04951  0.9444499999999999  0.10093999999999999  1.0000
  H   H95       1.0  0.11242  0.96035  0.14903  1.0000
  H   H96       1.0  0.038820000000000014  0.8784  0.19925999999999996  1.0000
  N   N47       1.0  0.32608999999999994  0.23937999999999998  0.7926  1.0000
  H   H97       1.0  0.3373900000000001  0.18311  0.7634399999999999  1.0000
  C   C103      1.0  0.35102  0.29922  0.71145  1.0000
  H   H98       1.0  0.29702000000000006  0.31057  0.7081899999999999  1.0000
  H   H99       1.0  0.40693  0.27878  0.62976  1.0000
  H   H100      1.0  0.36872000000000005  0.35504  0.72977  1.0000
  N   N48       1.0  0.84627  0.86825  0.96305  1.0000
  H   H101      1.0  0.81046  0.88492  0.04385999999999999  1.0000
  C   C104      1.0  0.8940199999999999  0.9326699999999999  0.88932  1.0000
  H   H102      1.0  0.9338099999999999  0.9601899999999999  0.9097599999999999  1.0000
  H   H103      1.0  0.8495799999999999  0.9773399999999999  0.89693  1.0000
  H   H104      1.0  0.93711  0.91185  0.80358  1.0000
