data_image0
_chemical_formula_structural       Ba2C48H52O34P8S2
_chemical_formula_sum              "Ba2 C48 H52 O34 P8 S2"
_cell_length_a       8.24936
_cell_length_b       14.44554
_cell_length_c       14.98494
_cell_angle_alpha    96.60191000000002
_cell_angle_beta     97.35433999999998
_cell_angle_gamma    91.77278999999999

_symmetry_space_group_name_H-M    'P 1'
_symmetry_Int_Tables_number       1

loop_
  _symmetry_equiv_pos_as_xyz
  'x,y,z'

loop_
  _atom_site_type_symbol
  _atom_site_label
  _atom_site_symmetry_multiplicity
  _atom_site_fract_x
  _atom_site_fract_y
  _atom_site_fract_z
  _atom_site_occupancy
  Ba  Ba1       1.0  0.8333999999999998  0.54331  0.45351999999999987  1.0000
  Ba  Ba2       1.0  0.35642000000000007  0.45676999999999995  0.5464799999999997  1.0000
  C   C1        1.0  0.5832  0.86443  0.14956  1.0000
  C   C2        1.0  0.91841  0.44037999999999994  0.9246899999999998  1.0000
  C   C3        1.0  0.04914999999999999  0.45974  0.11218999999999997  1.0000
  C   C4        1.0  0.0453  0.73777  0.20022  1.0000
  C   C5        1.0  0.90445  0.4060199999999999  0.07953  1.0000
  C   C6        1.0  0.83938  0.3976399999999999  0.9881599999999998  1.0000
  C   C7        1.0  0.11337999999999998  0.47311  0.20636999999999994  1.0000
  C   C8        1.0  0.26155  0.52459  0.23273999999999995  1.0000
  C   C9        1.0  0.08325  0.52668  0.79703  1.0000
  C   C10       1.0  0.14198  0.54429  0.89264  1.0000
  C   C11       1.0  0.06621999999999997  0.49372  0.9546099999999998  1.0000
  C   C12       1.0  0.52021  0.7777099999999998  0.18562999999999993  1.0000
  C   C13       1.0  0.2743899999999999  0.60788  0.9305399999999998  1.0000
  C   C14       1.0  0.36161  0.59382  0.013789999999999997  1.0000
  C   C15       1.0  0.28515  0.54972  0.07679  1.0000
  C   C16       1.0  0.02648  0.7650799999999999  0.10458  1.0000
  C   C17       1.0  0.13262  0.50168  0.04818  1.0000
  C   C18       1.0  0.35115  0.55903  0.16907999999999995  1.0000
  C   C19       1.0  0.9524100000000001  0.46081  0.7695699999999998  1.0000
  C   C20       1.0  0.70748  0.9355799999999999  0.5390899999999997  1.0000
  C   C21       1.0  0.5125099999999998  0.7960899999999999  0.4931899999999999  1.0000
  C   C22       1.0  0.3578000000000001  0.76253  0.44946  1.0000
  C   C23       1.0  0.45438  0.33013  0.27692  1.0000
  C   C24       1.0  0.24171999999999996  0.8246899999999998  0.4198599999999999  1.0000
  C   C25       1.0  0.28303  0.91843  0.4258799999999999  1.0000
  C   C26       1.0  0.4452200000000001  0.9509899999999998  0.45225999999999994  1.0000
  C   C27       1.0  0.55715  0.89337  0.49586999999999987  1.0000
  C   C28       1.0  0.19938999999999993  0.74193  0.6377299999999998  1.0000
  C   C29       1.0  0.64253  0.0845  0.47949  1.0000
  C   C30       1.0  0.74957  0.02993  0.53291  1.0000
  C   C31       1.0  0.68645  0.18236  0.4828699999999999  1.0000
  C   C32       1.0  0.83501  0.21896999999999997  0.53235  1.0000
  C   C33       1.0  0.9462200000000003  0.16248  0.57487  1.0000
  C   C34       1.0  0.42149  0.30689  0.17426  1.0000
  C   C35       1.0  0.90207  0.06871999999999998  0.5770899999999998  1.0000
  C   C36       1.0  0.49681000000000003  0.03787  0.42968  1.0000
  C   C37       1.0  0.18070999999999998  0.8477499999999999  0.6521799999999999  1.0000
  C   C38       1.0  0.96585  0.2525  0.34297  1.0000
  C   C39       1.0  0.91267  0.15195999999999998  0.3069099999999999  1.0000
  C   C40       1.0  0.77265  0.75968  0.73258  1.0000
  C   C41       1.0  0.7958599999999998  0.85017  0.7973699999999998  1.0000
  C   C42       1.0  0.32943  0.8988499999999999  0.7053999999999998  1.0000
  C   C43       1.0  0.2808  0.70696  0.91249  1.0000
  C   C44       1.0  0.16618  0.25679  0.79935  1.0000
  C   C45       1.0  0.20565999999999995  0.22983  0.8946499999999997  1.0000
  C   C46       1.0  0.66171  0.20852999999999997  0.7594799999999998  1.0000
  C   C47       1.0  0.73188  0.13449999999999995  0.8157299999999997  1.0000
  C   C48       1.0  0.85548  0.42994  0.8318699999999999  1.0000
  H   H1        1.0  0.50323  0.79527  0.25804  1.0000
  H   H2        1.0  0.68803  0.8985299999999999  0.19712999999999994  1.0000
  H   H3        1.0  0.8258800000000002  0.9089799999999999  0.7598499999999998  1.0000
  H   H4        1.0  0.89456  0.84615  0.8535699999999998  1.0000
  H   H5        1.0  0.68231  0.86526  0.8276899999999998  1.0000
  H   H6        1.0  0.40117  0.7544099999999999  0.14469999999999994  1.0000
  H   H7        1.0  0.48512999999999995  0.91441  0.14064999999999994  1.0000
  H   H8        1.0  0.3371999999999999  0.34286  0.3038499999999999  1.0000
  H   H9        1.0  0.5371  0.39355  0.2932299999999999  1.0000
  H   H10       1.0  0.33339  0.24585999999999994  0.15616999999999995  1.0000
  H   H11       1.0  0.36996  0.36644  0.14201999999999995  1.0000
  H   H12       1.0  0.15627  0.87439  0.58561  1.0000
  H   H13       1.0  0.53747  0.29003  0.14692  1.0000
  H   H14       1.0  0.62376  0.84523  0.08228999999999997  1.0000
  H   H15       1.0  0.10008  0.83036  0.10278999999999998  1.0000
  H   H16       1.0  0.23817000000000005  0.32229  0.79572  1.0000
  H   H17       1.0  0.03344999999999997  0.26871  0.7871899999999997  1.0000
  H   H18       1.0  0.33866  0.21924999999999997  0.9097699999999997  1.0000
  H   H19       1.0  0.17147999999999997  0.28614  0.9447799999999997  1.0000
  H   H20       1.0  0.13634999999999992  0.16428999999999996  0.9009199999999998  1.0000
  H   H21       1.0  0.7622099999999999  0.23642999999999997  0.7257699999999999  1.0000
  H   H22       1.0  0.56569  0.17537  0.7055699999999998  1.0000
  H   H23       1.0  0.07388999999999997  0.86399  0.6881299999999998  1.0000
  H   H24       1.0  0.78997  0.08133  0.77221  1.0000
  H   H25       1.0  0.63323  0.10007999999999999  0.8458299999999999  1.0000
  H   H26       1.0  0.9747699999999999  0.67063  0.19883  1.0000
  H   H27       1.0  0.8256399999999999  0.16714999999999994  0.8711099999999998  1.0000
  H   H28       1.0  0.83908  0.36942  0.12375999999999997  1.0000
  H   H29       1.0  0.7274899999999999  0.35553  0.9678999999999998  1.0000
  H   H30       1.0  0.47557  0.63338  0.03490999999999998  1.0000
  H   H31       1.0  0.31318  0.53263  0.30343  1.0000
  H   H32       1.0  0.91181  0.44311  0.69784  1.0000
  H   H33       1.0  0.32295  0.68919  0.44541999999999987  1.0000
  H   H34       1.0  0.86294  0.28705  0.37129999999999996  1.0000
  H   H35       1.0  0.19011  0.9653  0.4035499999999999  1.0000
  H   H36       1.0  0.98697  0.02604000000000001  0.61347  1.0000
  H   H37       1.0  0.17716  0.72835  0.22188999999999995  1.0000
  H   H38       1.0  0.86775  0.29251  0.53519  1.0000
  H   H39       1.0  0.79292  0.8964099999999999  0.5787899999999998  1.0000
  H   H40       1.0  0.06938  0.7086899999999998  0.05794  1.0000
  H   H41       1.0  0.89605  0.77573  0.08109  1.0000
  H   H42       1.0  0.31712  0.7257199999999998  0.61369  1.0000
  H   H43       1.0  0.09839  0.71271  0.58523  1.0000
  H   H44       1.0  0.51461  0.99351  0.70774  1.0000
  H   H45       1.0  0.07291999999999997  0.2540799999999999  0.3962599999999999  1.0000
  H   H46       1.0  0.61657  0.56036  0.68639  1.0000
  H   H47       1.0  0.15824  0.81813  0.87944  1.0000
  H   H48       1.0  0.24204  0.98787  0.20782  1.0000
  H   H49       1.0  0.8072  0.1522  0.25344  1.0000
  H   H50       1.0  0.88084  0.11235  0.3616799999999999  1.0000
  H   H51       1.0  0.009879999999999976  0.11580999999999998  0.2743899999999999  1.0000
  H   H52       1.0  0.88281  0.7477799999999999  0.6986899999999998  1.0000
  O   O1        1.0  0.8412299999999999  0.4441599999999998  0.2804299999999999  1.0000
  O   O2        1.0  0.28357  0.16951  0.5739  1.0000
  O   O3        1.0  0.20793  0.18458999999999995  0.73647  1.0000
  O   O4        1.0  0.11285999999999997  0.4473499999999999  0.3937099999999999  1.0000
  O   O5        1.0  0.56061  0.61373  0.54077  1.0000
  O   O6        1.0  0.38746  0.27029  0.4672099999999999  1.0000
  O   O7        1.0  0.52775  0.25372  0.31193  1.0000
  O   O8        1.0  0.5161599999999998  0.45119  0.8321199999999997  1.0000
  O   O9        1.0  0.59035  0.27605  0.816  1.0000
  O   O10       1.0  0.5979399999999999  0.6157  0.32769  1.0000
  O   O11       1.0  0.68018  0.53364  0.17526  1.0000
  O   O12       1.0  0.63075  0.76573  0.6730399999999997  1.0000
  O   O13       1.0  0.007569999999999995  0.2955799999999999  0.27012  1.0000
  O   O14       1.0  0.6354600000000001  0.70916  0.17642  1.0000
  O   O15       1.0  0.80224  0.72974  0.5328499999999998  1.0000
  O   O16       1.0  0.01717999999999999  0.66479  0.37108  1.0000
  O   O17       1.0  0.9031900000000002  0.8289099999999999  0.4220199999999999  1.0000
  O   O18       1.0  0.3734799999999999  0.8840099999999999  0.7832199999999998  1.0000
  O   O19       1.0  0.41427  0.96538  0.6663999999999998  1.0000
  O   O20       1.0  0.85703  0.65771  0.8716  1.0000
  O   O21       1.0  0.56822  0.67151  0.8212899999999997  1.0000
  O   O22       1.0  0.7315599999999999  0.57302  0.7122399999999998  1.0000
  O   O23       1.0  0.98422  0.80779  0.2582499999999999  1.0000
  O   O24       1.0  0.40594  0.75597  0.9365699999999998  1.0000
  O   O25       1.0  0.13812999999999995  0.74904  0.8822799999999997  1.0000
  O   O26       1.0  0.29687  0.13559  0.32302999999999993  1.0000
  O   O27       1.0  0.54926  0.08191  0.26512  1.0000
  O   O28       1.0  0.31045  0.9641  0.25876999999999994  1.0000
  O   O29       1.0  0.34848000000000007  0.55587  0.71962  1.0000
  O   O30       1.0  0.07682999999999995  0.5527299999999999  0.6062999999999998  1.0000
  O   O31       1.0  0.5917600000000002  0.38437999999999994  0.6723199999999998  1.0000
  O   O32       1.0  0.19303999999999993  0.7054599999999999  0.7199099999999998  1.0000
  O   O33       1.0  0.62909  0.38634999999999997  0.4592399999999999  1.0000
  O   O34       1.0  0.17251999999999995  0.33528999999999987  0.6289199999999998  1.0000
  P   P1        1.0  0.0186  0.41679  0.29597  1.0000
  P   P2        1.0  0.63566  0.71653  0.5609  1.0000
  P   P3        1.0  0.03571999999999998  0.78365  0.3698699999999999  1.0000
  P   P4        1.0  0.17108999999999994  0.58329  0.7040299999999998  1.0000
  P   P5        1.0  0.15020999999999995  0.21343999999999996  0.6267699999999998  1.0000
  P   P6        1.0  0.56211  0.60565  0.21028999999999995  1.0000
  P   P7        1.0  0.55821  0.2701200000000001  0.43035  1.0000
  P   P8        1.0  0.64012  0.38723999999999986  0.7892899999999998  1.0000
  S   S1        1.0  0.7330600000000002  0.6646799999999999  0.7908099999999998  1.0000
  S   S2        1.0  0.41415  0.05871  0.31773  1.0000
