data_image0
_chemical_formula_structural       C26H16N2O8Zn2
_chemical_formula_sum              "C26 H16 N2 O8 Zn2"
_cell_length_a       7.81524
_cell_length_b       8.566549999999998
_cell_length_c       12.48896
_cell_angle_alpha    92.60691
_cell_angle_beta     103.19422
_cell_angle_gamma    93.72227000000001

_symmetry_space_group_name_H-M    'P 1'
_symmetry_Int_Tables_number       1

loop_
  _symmetry_equiv_pos_as_xyz
  'x,y,z'

loop_
  _atom_site_type_symbol
  _atom_site_label
  _atom_site_symmetry_multiplicity
  _atom_site_fract_x
  _atom_site_fract_y
  _atom_site_fract_z
  _atom_site_occupancy
  C   C1        1.0  0.04472999999999995  0.79463  0.4983199999999999  1.0000
  C   C2        1.0  0.19303  0.6101199999999999  0.81912  1.0000
  C   C3        1.0  0.06942999999999999  0.9583799999999999  0.50006  1.0000
  C   C4        1.0  0.11560000000000006  0.53942  0.70627  1.0000
  C   C5        1.0  0.9330700000000002  0.04213  0.50541  1.0000
  C   C6        1.0  0.9560800000000003  0.20554  0.50332  1.0000
  C   C7        1.0  0.8884500000000001  0.48438999999999993  0.29117  1.0000
  C   C8        1.0  0.8462200000000002  0.41383  0.98707  1.0000
  C   C9        1.0  0.8240200000000002  0.47762  0.17295999999999997  1.0000
  C   C10       1.0  0.08654999999999999  0.67255  0.8839399999999998  1.0000
  C   C11       1.0  0.15568  0.7128  0.9956899999999999  1.0000
  C   C12       1.0  0.4392899999999999  0.62312  0.9797399999999999  1.0000
  C   C13       1.0  0.32841  0.6819999999999999  0.044879999999999996  1.0000
  C   C14       1.0  0.04338  0.28528999999999993  0.13609  1.0000
  C   C15       1.0  0.19863  0.29258  0.09697  1.0000
  C   C16       1.0  0.3260500000000001  0.18612  0.12915  1.0000
  C   C17       1.0  0.29753  0.0683  0.19816  1.0000
  C   C18       1.0  0.14123000000000005  0.05643999999999999  0.23456  1.0000
  C   C19       1.0  0.01492000000000001  0.16468  0.20433  1.0000
  C   C20       1.0  0.37622  0.61258  0.86487  1.0000
  C   C21       1.0  0.6056  0.56413  0.022209999999999994  1.0000
  C   C22       1.0  0.7007700000000002  0.49948  0.94885  1.0000
  C   C23       1.0  0.6501600000000001  0.52412  0.8378299999999999  1.0000
  C   C24       1.0  0.49879000000000007  0.59743  0.7996499999999999  1.0000
  C   C25       1.0  0.67535  0.55875  0.13395  1.0000
  C   C26       1.0  0.9055500000000002  0.39602  0.09949999999999999  1.0000
  H   H1        1.0  0.80398  0.99116  0.51003  1.0000
  H   H2        1.0  0.47476  0.63737  0.71827  1.0000
  H   H3        1.0  0.19869000000000003  0.009439999999999997  0.49585999999999997  1.0000
  H   H4        1.0  0.22052  0.3796  0.04085  1.0000
  H   H5        1.0  0.4459900000000001  0.19398  0.09953  1.0000
  H   H6        1.0  0.3955100000000002  0.9850300000000001  0.22229  1.0000
  H   H7        1.0  0.11730000000000003  0.9622699999999998  0.28528  1.0000
  H   H8        1.0  0.8938400000000004  0.15282  0.23256  1.0000
  H   H9        1.0  0.4709200000000001  0.36326  0.42845  1.0000
  H   H10       1.0  0.5293700000000002  0.64502  0.56142  1.0000
  H   H11       1.0  0.7273000000000002  0.4879800000000001  0.78096  1.0000
  H   H12       1.0  0.91002  0.35733  0.9288099999999999  1.0000
  H   H13       1.0  0.6156000000000003  0.61789  0.19239999999999996  1.0000
  H   H14       1.0  0.9507500000000003  0.69088  0.8482799999999999  1.0000
  H   H15       1.0  0.3695100000000001  0.70284  0.13305  1.0000
  H   H16       1.0  0.07204000000000003  0.7595  0.04556999999999999  1.0000
  N   N1        1.0  0.43480000000000024  0.45669  0.47085  1.0000
  N   N2        1.0  0.5652  0.5433099999999998  0.52915  1.0000
  O   O1        1.0  0.8930600000000002  0.7388799999999999  0.50715  1.0000
  O   O2        1.0  0.1722500000000001  0.71113  0.48847  1.0000
  O   O3        1.0  0.9447000000000002  0.5207299999999999  0.6676  1.0000
  O   O4        1.0  0.22389000000000006  0.49298  0.64892  1.0000
  O   O5        1.0  0.8277500000000002  0.28886999999999996  0.51153  1.0000
  O   O6        1.0  0.10694000000000002  0.26112  0.49285  1.0000
  O   O7        1.0  0.7761100000000002  0.50702  0.35107999999999995  1.0000
  O   O8        1.0  0.05530000000000002  0.47927000000000003  0.3324  1.0000
  Zn  Zn1       1.0  0.81358  0.51853  0.51247  1.0000
  Zn  Zn2       1.0  0.18642000000000006  0.48146999999999995  0.48753  1.0000
