data_image0
_chemical_formula_structural       C126H54O36Zn6
_chemical_formula_sum              "C126 H54 O36 Zn6"
_cell_length_a       16.90661
_cell_length_b       16.93192
_cell_length_c       16.75534
_cell_angle_alpha    65.95237
_cell_angle_beta     65.78935999999999
_cell_angle_gamma    66.61936

_symmetry_space_group_name_H-M    'P 1'
_symmetry_Int_Tables_number       1

loop_
  _symmetry_equiv_pos_as_xyz
  'x,y,z'

loop_
  _atom_site_type_symbol
  _atom_site_label
  _atom_site_symmetry_multiplicity
  _atom_site_fract_x
  _atom_site_fract_y
  _atom_site_fract_z
  _atom_site_occupancy
  C   C1        1.0  0.39983  0.09770999999999999  0.64061  1.0000
  C   C2        1.0  0.4008599999999998  0.6658700000000002  0.05309000000000001  1.0000
  C   C3        1.0  0.2603999999999999  0.7344800000000002  0.28196  1.0000
  C   C4        1.0  0.31105999999999995  0.7091400000000002  0.34089  1.0000
  C   C5        1.0  0.33003999999999994  0.77465  0.3551800000000001  1.0000
  C   C6        1.0  0.13396999999999998  0.70451  0.69833  1.0000
  C   C7        1.0  0.22739999999999985  0.6839600000000002  0.65477  1.0000
  C   C8        1.0  0.28218999999999994  0.71787  0.66879  1.0000
  C   C9        1.0  0.24420000000000003  0.7727299999999999  0.7262200000000002  1.0000
  C   C10       1.0  0.15154000000000004  0.79265  0.77091  1.0000
  C   C11       1.0  0.09643999999999998  0.75894  0.75702  1.0000
  C   C12       1.0  0.88451  0.2848700000000001  0.28761  1.0000
  C   C13       1.0  0.9415  0.59719  0.34099  1.0000
  C   C14       1.0  0.7906999999999998  0.3006200000000001  0.31485  1.0000
  C   C15       1.0  0.75292  0.26425999999999994  0.28247000000000005  1.0000
  C   C16       1.0  0.8085199999999999  0.2129  0.22190000000000004  1.0000
  C   C17       1.0  0.9018699999999998  0.19575000000000006  0.19537000000000004  1.0000
  C   C18       1.0  0.9399499999999998  0.23075000000000012  0.22856  1.0000
  C   C19       1.0  0.7203799999999998  0.72054  0.10243000000000002  1.0000
  C   C20       1.0  0.77687  0.7761800000000002  0.03861000000000001  1.0000
  C   C21       1.0  0.8202199999999996  0.80904  0.06831  1.0000
  C   C22       1.0  0.80764  0.78717  0.16154  1.0000
  C   C23       1.0  0.75036  0.73368  0.22548  1.0000
  C   C24       1.0  0.04176999999999992  0.40478000000000003  0.6660000000000003  1.0000
  C   C25       1.0  0.7070999999999997  0.7001500000000003  0.19611000000000006  1.0000
  C   C26       1.0  0.2862499999999998  0.2847600000000001  0.8968500000000003  1.0000
  C   C27       1.0  0.22970999999999997  0.22701000000000002  0.95039  1.0000
  C   C28       1.0  0.19655999999999998  0.19575000000000004  0.90878  1.0000
  C   C29       1.0  0.21745000000000003  0.22332  0.81386  1.0000
  C   C30       1.0  0.27041999999999994  0.28332  0.76016  1.0000
  C   C31       1.0  0.30522999999999983  0.31361000000000017  0.8014500000000002  1.0000
  C   C32       1.0  0.96199  0.17907  0.43807  1.0000
  C   C33       1.0  0.0364099999999998  0.8206700000000005  0.56257  1.0000
  C   C34       1.0  0.17922999999999986  0.43757000000000007  0.9641900000000002  1.0000
  C   C35       1.0  0.82055  0.5627100000000003  0.037170000000000016  1.0000
  C   C36       1.0  0.4380599999999999  0.9620200000000002  0.17964  1.0000
  C   C37       1.0  0.56201  0.039199999999999964  0.82031  1.0000
  C   C38       1.0  0.56205  0.82132  0.037720000000000004  1.0000
  C   C39       1.0  0.5945699999999995  0.94549  0.34645  1.0000
  C   C40       1.0  0.43228999999999995  0.17704999999999996  0.9763000000000002  1.0000
  C   C41       1.0  0.03830999999999984  0.5621300000000002  0.82035  1.0000
  C   C42       1.0  0.9614699999999999  0.43789000000000006  0.17948  1.0000
  C   C43       1.0  0.8211599999999999  0.03876999999999999  0.56175  1.0000
  C   C44       1.0  0.17704999999999999  0.97675  0.43162  1.0000
  C   C45       1.0  0.44672999999999996  0.09100999999999994  0.6962100000000002  1.0000
  C   C46       1.0  0.54988  0.9312700000000003  0.30085  1.0000
  C   C47       1.0  0.05579999999999998  0.7089  0.4478600000000001  1.0000
  C   C48       1.0  0.93152  0.29258000000000023  0.55507  1.0000
  C   C49       1.0  0.6966499999999997  0.4490900000000001  0.08608  1.0000
  C   C50       1.0  0.041489999999999964  0.66426  0.4031400000000001  1.0000
  C   C51       1.0  0.29770999999999986  0.5492300000000002  0.93797  1.0000
  C   C52       1.0  0.2635  0.04664999999999999  0.50281  1.0000
  C   C53       1.0  0.71249  0.060390000000000006  0.446  1.0000
  C   C54       1.0  0.51137  0.2680200000000001  0.03326  1.0000
  C   C55       1.0  0.4466199999999998  0.70808  0.07003  1.0000
  C   C56       1.0  0.9291499999999999  0.5516  0.29587  1.0000
  C   C57       1.0  0.06178999999999989  0.4493400000000002  0.7068700000000002  1.0000
  C   C58       1.0  0.5394199999999998  0.04141999999999999  0.53456  1.0000
  C   C59       1.0  0.4502  0.00787999999999998  0.4458300000000001  1.0000
  C   C60       1.0  0.018149999999999944  0.5426800000000003  0.54341  1.0000
  C   C61       1.0  0.9459199999999992  0.33684000000000003  0.6009600000000003  1.0000
  C   C62       1.0  0.9694799999999999  0.4585600000000002  0.4612700000000001  1.0000
  C   C63       1.0  0.5348299999999999  0.5408500000000002  0.04075  1.0000
  C   C64       1.0  0.44686  0.45239  0.00508  1.0000
  C   C65       1.0  0.5868399999999998  0.021569999999999975  0.45015000000000005  1.0000
  C   C66       1.0  0.3998300000000001  0.037519999999999984  0.52542  1.0000
  C   C67       1.0  0.009409999999999986  0.45382  0.58892  1.0000
  C   C68       1.0  0.9759900000000002  0.548  0.41704  1.0000
  C   C69       1.0  0.44885  0.58627  0.02657  1.0000
  C   C70       1.0  0.52878  0.40432  0.02857  1.0000
  C   C71       1.0  0.5446899999999999  0.9934500000000004  0.41226  1.0000
  C   C72       1.0  0.64291  0.40200000000000014  0.08998  1.0000
  C   C73       1.0  0.44499999999999984  0.05612999999999993  0.5690900000000002  1.0000
  C   C74       1.0  0.4099699999999996  0.54519  0.9977900000000001  1.0000
  C   C75       1.0  0.5710199999999997  0.44816  0.049990000000000014  1.0000
  C   C76       1.0  0.9778699999999999  0.41440000000000005  0.55067  1.0000
  C   C77       1.0  0.009169999999999928  0.5867200000000002  0.45419  1.0000
  C   C78       1.0  0.5414099999999998  0.06497000000000001  0.6690300000000001  1.0000
  C   C79       1.0  0.45546  0.9566299999999999  0.3249200000000001  1.0000
  C   C80       1.0  0.0473499999999998  0.6750700000000002  0.5421800000000001  1.0000
  C   C81       1.0  0.9435  0.3258  0.46016  1.0000
  C   C82       1.0  0.66953  0.54341  0.06209  1.0000
  C   C83       1.0  0.3402499999999999  0.59471  0.95527  1.0000
  C   C84       1.0  0.3242199999999999  0.45492  0.9591000000000002  1.0000
  C   C85       1.0  0.31194  0.005959999999999999  0.43152  1.0000
  C   C86       1.0  0.67595  0.055740000000000046  0.53967  1.0000
  C   C87       1.0  0.4357699999999999  0.31392999999999993  0.99968  1.0000
  C   C88       1.0  0.5404299999999997  0.67492  0.058380000000000015  1.0000
  C   C89       1.0  0.9421299999999998  0.45775999999999994  0.32840000000000014  1.0000
  C   C90       1.0  0.051100000000000055  0.54275  0.67343  1.0000
  C   C91       1.0  0.5917099999999996  0.06484000000000001  0.71976  1.0000
  C   C92       1.0  0.4085399999999998  0.9438000000000001  0.27903  1.0000
  C   C93       1.0  0.05734999999999998  0.7219100000000003  0.59096  1.0000
  C   C94       1.0  0.30611999999999995  0.045070000000000054  0.55868  1.0000
  C   C95       1.0  0.9383599999999996  0.27775  0.4096400000000001  1.0000
  C   C96       1.0  0.7210699999999995  0.59378  0.060580000000000016  1.0000
  C   C97       1.0  0.27729999999999994  0.40684  0.9488500000000002  1.0000
  C   C98       1.0  0.2713399999999999  0.97352  0.3947700000000001  1.0000
  C   C99       1.0  0.7228700000000001  0.06273999999999993  0.5899900000000002  1.0000
  C   C100      1.0  0.39574999999999977  0.27147999999999994  0.9728200000000002  1.0000
  C   C101      1.0  0.5916700000000001  0.72332  0.060880000000000004  1.0000
  C   C102      1.0  0.9373  0.40822  0.27946  1.0000
  C   C103      1.0  0.06090999999999995  0.59118  0.72033  1.0000
  C   C104      1.0  0.6765799999999996  0.07912999999999994  0.6745900000000002  1.0000
  C   C105      1.0  0.67109  0.04047999999999997  0.4020800000000001  1.0000
  C   C106      1.0  0.3232299999999998  0.9338100000000003  0.32459  1.0000
  C   C107      1.0  0.07692000000000009  0.67513  0.67357  1.0000
  C   C108      1.0  0.92358  0.32301  0.3246  1.0000
  C   C109      1.0  0.6779799999999998  0.67971  0.07165000000000003  1.0000
  C   C110      1.0  0.32042999999999994  0.32070999999999994  0.9409600000000001  1.0000
  C   C111      1.0  0.5859699999999998  0.05316999999999999  0.5814  1.0000
  C   C112      1.0  0.40609999999999985  0.9892600000000004  0.40145  1.0000
  C   C113      1.0  0.03865999999999992  0.5869200000000002  0.58642  1.0000
  C   C114      1.0  0.9517199999999999  0.41397  0.41663  1.0000
  C   C115      1.0  0.58197  0.58687  0.05274  1.0000
  C   C116      1.0  0.56578  0.3136100000000001  0.02827  1.0000
  C   C117      1.0  0.40290999999999993  0.40742000000000006  0.9867100000000002  1.0000
  C   C118      1.0  0.70482  0.13224  0.70551  1.0000
  C   C119      1.0  0.7606000000000002  0.09080000000000005  0.76311  1.0000
  C   C120      1.0  0.7757699999999997  0.14211999999999997  0.8002100000000001  1.0000
  C   C121      1.0  0.7356200000000002  0.23492  0.78021  1.0000
  C   C122      1.0  0.6819799999999999  0.27691  0.72141  1.0000
  C   C123      1.0  0.66649  0.22588  0.6843  1.0000
  C   C124      1.0  0.2984899999999997  0.8661800000000002  0.31046  1.0000
  C   C125      1.0  0.24708999999999995  0.8911600000000002  0.25159  1.0000
  C   C126      1.0  0.22774999999999992  0.8254600000000002  0.23797000000000001  1.0000
  H   H1        1.0  0.40923  0.11920999999999998  0.7529400000000003  1.0000
  H   H2        1.0  0.40617  0.76337  0.09872000000000002  1.0000
  H   H3        1.0  0.9016200000000001  0.59232  0.2394  1.0000
  H   H4        1.0  0.09289999999999986  0.40807  0.7607900000000002  1.0000
  H   H5        1.0  0.30544  0.18505999999999997  0.58827  1.0000
  H   H6        1.0  0.71138  0.88127  0.2817900000000001  1.0000
  H   H7        1.0  0.08898  0.64192  0.28553  1.0000
  H   H8        1.0  0.9095699999999999  0.25068999999999997  0.7191900000000002  1.0000
  H   H9        1.0  0.5957800000000002  0.3011700000000002  0.17316  1.0000
  H   H10       1.0  0.26631999999999983  0.7117500000000001  0.9017900000000002  1.0000
  H   H11       1.0  0.29381999999999997  0.0010399999999999169  0.6875800000000002  1.0000
  H   H12       1.0  0.5892700000000001  0.8938300000000002  0.25143  1.0000
  H   H13       1.0  0.7721600000000001  0.044230000000000005  0.29132  1.0000
  H   H14       1.0  0.6911699999999998  0.31230000000000024  0.97726  1.0000
  H   H15       1.0  0.2856599999999999  0.7542400000000002  0.08486  1.0000
  H   H16       1.0  0.8910899999999999  0.71153  0.36708  1.0000
  H   H17       1.0  0.061060000000000045  0.29139  0.75972  1.0000
  H   H18       1.0  0.7891899999999998  0.018479999999999976  0.7822200000000001  1.0000
  H   H19       1.0  0.8174099999999999  0.10971999999999996  0.8457400000000003  1.0000
  H   H20       1.0  0.7460899999999997  0.27435  0.81025  1.0000
  H   H21       1.0  0.65121  0.3488399999999999  0.7057300000000002  1.0000
  H   H22       1.0  0.62262  0.2589500000000001  0.64088  1.0000
  H   H23       1.0  0.0828  0.76549  0.40464  1.0000
  H   H24       1.0  0.22183999999999993  0.9613700000000002  0.21664  1.0000
  H   H25       1.0  0.18761999999999993  0.8451000000000002  0.19314  1.0000
  H   H26       1.0  0.24612  0.68358  0.27075  1.0000
  H   H27       1.0  0.3358199999999999  0.63871  0.37533000000000005  1.0000
  H   H28       1.0  0.3698199999999998  0.7541200000000002  0.4007000000000001  1.0000
  H   H29       1.0  0.2574499999999999  0.6432200000000002  0.6083500000000002  1.0000
  H   H30       1.0  0.35394999999999993  0.70256  0.63416  1.0000
  H   H31       1.0  0.28655999999999987  0.80003  0.73588  1.0000
  H   H32       1.0  0.1221799999999998  0.8353600000000001  0.8152300000000002  1.0000
  H   H33       1.0  0.02430999999999987  0.7777500000000003  0.78943  1.0000
  H   H34       1.0  0.9031299999999999  0.23639999999999994  0.5962300000000003  1.0000
  H   H35       1.0  0.7470500000000001  0.3406500000000001  0.36135  1.0000
  H   H36       1.0  0.6805  0.2761  0.30422  1.0000
  H   H37       1.0  0.77963  0.186  0.19533  1.0000
  H   H38       1.0  0.94473  0.15518  0.14929  1.0000
  H   H39       1.0  0.012729999999999993  0.2161  0.20832000000000003  1.0000
  H   H40       1.0  0.7884100000000002  0.79218  0.96588  1.0000
  H   H41       1.0  0.8642299999999999  0.85072  0.019  1.0000
  H   H42       1.0  0.8423399999999996  0.81207  0.18396000000000004  1.0000
  H   H43       1.0  0.7404199999999999  0.7171500000000001  0.29787  1.0000
  H   H44       1.0  0.6642200000000001  0.65751  0.24611  1.0000
  H   H45       1.0  0.75266  0.41087  0.11418000000000003  1.0000
  H   H46       1.0  0.21203  0.20624  0.02440000000000001  1.0000
  H   H47       1.0  0.15451999999999996  0.15034999999999996  0.9501000000000002  1.0000
  H   H48       1.0  0.19234999999999997  0.19767000000000004  0.78241  1.0000
  H   H49       1.0  0.28495999999999994  0.3059900000000001  0.68651  1.0000
  H   H50       1.0  0.34648  0.35971  0.75937  1.0000
  H   H51       1.0  0.24764999999999987  0.58908  0.9019500000000003  1.0000
  H   H52       1.0  0.19143  0.07427000000000002  0.52283  1.0000
  H   H53       1.0  0.7700199999999999  0.08605  0.403  1.0000
  H   H54       1.0  0.5350699999999998  0.19644000000000006  0.05999  1.0000
  O   O1        1.0  0.9829399999999999  0.13895000000000002  0.51016  1.0000
  O   O2        1.0  0.9829399999999999  0.51016  0.13895  1.0000
  O   O3        1.0  0.8610499999999998  0.017059999999999995  0.4898400000000001  1.0000
  O   O4        1.0  0.13894999999999993  0.9829400000000001  0.51016  1.0000
  O   O5        1.0  0.8677000000000001  0.02588  0.61234  1.0000
  O   O6        1.0  0.13229999999999975  0.9741200000000004  0.38766  1.0000
  O   O7        1.0  0.025879999999999945  0.61234  0.8677000000000001  1.0000
  O   O8        1.0  0.97412  0.3876600000000001  0.1323  1.0000
  O   O9        1.0  0.6123399999999997  0.8677  0.02588  1.0000
  O   O10       1.0  0.38765999999999984  0.13229999999999995  0.9741200000000002  1.0000
  O   O11       1.0  0.3876599999999999  0.9741200000000002  0.1323  1.0000
  O   O12       1.0  0.01705999999999988  0.86105  0.4898400000000001  1.0000
  O   O13       1.0  0.6123399999999998  0.02588  0.8677000000000001  1.0000
  O   O14       1.0  0.13229999999999992  0.38766000000000006  0.9741200000000002  1.0000
  O   O15       1.0  0.8676999999999997  0.61234  0.02588  1.0000
  O   O16       1.0  0.97412  0.1323  0.38766  1.0000
  O   O17       1.0  0.02588000000000005  0.8677  0.61234  1.0000
  O   O18       1.0  0.3146699999999998  0.15622999999999995  0.6496800000000003  1.0000
  O   O19       1.0  0.6853799999999999  0.9037700000000002  0.3355800000000001  1.0000
  O   O20       1.0  0.06778  0.69431  0.30878  1.0000
  O   O21       1.0  0.9181599999999998  0.31163999999999986  0.6954400000000002  1.0000
  O   O22       1.0  0.65538  0.31392  0.14360000000000003  1.0000
  O   O23       1.0  0.13894999999999993  0.5101600000000002  0.98294  1.0000
  O   O24       1.0  0.3211299999999998  0.6873700000000003  0.9218600000000002  1.0000
  O   O25       1.0  0.2546399999999999  0.04194999999999993  0.6478600000000002  1.0000
  O   O26       1.0  0.70664  0.05131999999999996  0.30919000000000013  1.0000
  O   O27       1.0  0.6559  0.26801  0.01681  1.0000
  O   O28       1.0  0.3078899999999999  0.6947600000000003  0.07401  1.0000
  O   O29       1.0  0.9118399999999994  0.68982  0.31319  1.0000
  O   O30       1.0  0.06467999999999999  0.31212  0.69417  1.0000
  O   O31       1.0  0.8610499999999999  0.48984  0.01706  1.0000
  O   O32       1.0  0.5101599999999995  0.9829400000000003  0.13895  1.0000
  O   O33       1.0  0.48984000000000005  0.017059999999999964  0.86105  1.0000
  O   O34       1.0  0.48984000000000005  0.86105  0.01706  1.0000
  O   O35       1.0  0.5101599999999998  0.13895000000000002  0.98294  1.0000
  O   O36       1.0  0.017059999999999985  0.48983999999999994  0.86105  1.0000
  Zn  Zn1       1.0  0.004879999999999921  0.004879999999999937  0.5835900000000003  1.0000
  Zn  Zn2       1.0  0.9951199999999999  0.99512  0.41641  1.0000
  Zn  Zn3       1.0  0.004879999999999898  0.5835900000000003  0.00488  1.0000
  Zn  Zn4       1.0  0.9951199999999999  0.4164100000000001  0.9951200000000002  1.0000
  Zn  Zn5       1.0  0.58359  0.00488  0.00488  1.0000
  Zn  Zn6       1.0  0.4164099999999999  0.9951200000000001  0.9951200000000002  1.0000
