data_image0
_chemical_formula_structural       C32H5N2O8Zn2OHNHCH3OHOHOHOHOHOHOHNHCH3NHCH3OHOHOHNHCH3
_chemical_formula_sum              "C36 H32 N6 O19 Zn2"
_cell_length_a       9.94504
_cell_length_b       10.66322
_cell_length_c       13.24883
_cell_angle_alpha    90.30908
_cell_angle_beta     70.77386000000001
_cell_angle_gamma    87.87103999999998

_symmetry_space_group_name_H-M    'P 1'
_symmetry_Int_Tables_number       1

loop_
  _symmetry_equiv_pos_as_xyz
  'x,y,z'

loop_
  _atom_site_type_symbol
  _atom_site_label
  _atom_site_symmetry_multiplicity
  _atom_site_fract_x
  _atom_site_fract_y
  _atom_site_fract_z
  _atom_site_occupancy
  C   C1        1.0  0.49716999999999995  0.73965  0.50165  1.0000
  C   C2        1.0  0.4541400000000001  0.50506  0.9767  1.0000
  C   C3        1.0  0.47718000000000005  0.46292  0.87176  1.0000
  C   C4        1.0  0.56048  0.47549  0.022490000000000003  1.0000
  C   C5        1.0  0.70205  0.4435299999999999  0.95878  1.0000
  C   C6        1.0  0.72343  0.39474999999999993  0.8554500000000002  1.0000
  C   C7        1.0  0.60358  0.3871  0.82032  1.0000
  C   C8        1.0  0.5236299999999999  0.45692  0.13097  1.0000
  C   C9        1.0  0.77014  0.47255  0.11797000000000002  1.0000
  C   C10       1.0  0.3779999999999999  0.5022499999999999  0.82028  1.0000
  C   C11       1.0  0.3781  0.9436099999999997  0.55654  1.0000
  C   C12       1.0  0.42227000000000003  0.4964399999999999  0.7034400000000001  1.0000
  C   C13       1.0  0.49588  0.87149  0.49424  1.0000
  C   C14       1.0  0.6105  0.92736  0.41843000000000014  1.0000
  C   C15       1.0  0.61503  0.05715  0.41345000000000004  1.0000
  C   C16       1.0  0.5051399999999998  0.12857  0.4893900000000001  1.0000
  C   C17       1.0  0.38422999999999996  0.07155  0.55393  1.0000
  C   C18       1.0  0.30808  0.09216  0.67058  1.0000
  C   C19       1.0  0.3027  0.94958  0.67619  1.0000
  C   C20       1.0  0.89602  0.57673  0.56841  1.0000
  C   C21       1.0  0.95718  0.41044  0.44424  1.0000
  C   C22       1.0  0.09962999999999994  0.40725999999999996  0.4486600000000001  1.0000
  C   C23       1.0  0.5031799999999998  0.26065  0.49653  1.0000
  C   C24       1.0  0.03750000000000002  0.57656  0.56815  1.0000
  C   C25       1.0  0.033120000000000024  0.7156399999999999  0.58157  1.0000
  C   C26       1.0  0.8802899999999999  0.71682  0.57983  1.0000
  C   C27       1.0  0.5786799999999999  0.49280999999999997  0.29669  1.0000
  C   C28       1.0  0.81027  0.44655  0.007640000000000001  1.0000
  C   C29       1.0  0.62583  0.4746  0.18081000000000005  1.0000
  C   C30       1.0  0.25380999999999987  0.57515  0.8757000000000001  1.0000
  C   C31       1.0  0.2279499999999999  0.6116699999999999  0.9827700000000003  1.0000
  C   C32       1.0  0.32882999999999996  0.57831  0.03318000000000001  1.0000
  H   H1        1.0  0.85152  0.48332  0.15488  1.0000
  H   H2        1.0  0.3750299999999998  0.13515  0.7124  1.0000
  H   H3        1.0  0.20273999999999995  0.14178  0.68591  1.0000
  H   H4        1.0  0.041109999999999945  0.74139  0.66017  1.0000
  H   H5        1.0  0.6966900000000001  0.8702399999999998  0.36396000000000006  1.0000
  N   N1        1.0  0.85694  0.50086  0.50071  1.0000
  N   N2        1.0  0.14257999999999998  0.50082  0.50071  1.0000
  O   O1        1.0  0.38530999999999965  0.68321  0.49999  1.0000
  O   O2        1.0  0.6146500000000001  0.6832399999999998  0.5  1.0000
  O   O3        1.0  0.32839  0.49994  0.65361  1.0000
  O   O4        1.0  0.5577299999999998  0.4999799999999999  0.65362  1.0000
  O   O5        1.0  0.38535  0.31676  0.5  1.0000
  O   O6        1.0  0.61469  0.31679  0.50001  1.0000
  O   O7        1.0  0.44227  0.50002  0.34638  1.0000
  O   O8        1.0  0.6716100000000002  0.5000599999999998  0.34639  1.0000
  Zn  Zn1       1.0  0.3468699999999999  0.4999799999999999  0.49999  1.0000
  Zn  Zn2       1.0  0.6531299999999999  0.50002  0.50001  1.0000
  O   O9        1.0  0.72701  0.10875  0.33551  1.0000
  H   H6        1.0  0.69948  0.19622  0.32386  1.0000
  N   N3        1.0  0.38632999999999995  0.8921799999999999  0.7368800000000001  1.0000
  H   H7        1.0  0.49378  0.90839  0.7079300000000001  1.0000
  C   C33       1.0  0.32621  0.90609  0.85196  1.0000
  H   H8        1.0  0.3938199999999999  0.8519299999999999  0.8898000000000001  1.0000
  H   H9        1.0  0.21736999999999995  0.8695899999999998  0.88111  1.0000
  H   H10       1.0  0.32093  0.006259999999999999  0.87651  1.0000
  O   O10       1.0  0.16350000000000003  0.90635  0.70742  1.0000
  H   H11       1.0  0.11125  0.95018  0.6647000000000001  1.0000
  O   O11       1.0  0.9248799999999998  0.32281  0.3802400000000001  1.0000
  H   H12       1.0  0.8375499999999999  0.35256  0.36746  1.0000
  O   O12       1.0  0.19631  0.31105  0.4012400000000001  1.0000
  H   H13       1.0  0.14692000000000002  0.24218999999999993  0.37966  1.0000
  O   O13       1.0  0.12863999999999998  0.77765  0.49523  1.0000
  H   H14       1.0  0.13032  0.73669  0.42726  1.0000
  O   O14       1.0  0.7795199999999995  0.7577299999999999  0.67731  1.0000
  H   H15       1.0  0.6851099999999999  0.7349899999999999  0.67427  1.0000
  O   O15       1.0  0.85284  0.33682  0.79827  1.0000
  H   H16       1.0  0.86279  0.33484  0.72151  1.0000
  O   O16       1.0  0.8619600000000001  0.77637  0.49076  1.0000
  H   H17       1.0  0.8614900000000001  0.8678999999999999  0.50495  1.0000
  N   N4        1.0  0.9580399999999997  0.4308599999999999  0.94861  1.0000
  H   H18       1.0  0.98822  0.4577999999999999  0.87021  1.0000
  C   C34       1.0  0.025449999999999987  0.314  0.9656  1.0000
  H   H19       1.0  0.1408799999999999  0.31248  0.9186100000000001  1.0000
  H   H20       1.0  0.9768899999999999  0.23328  0.93925  1.0000
  H   H21       1.0  0.014349999999999998  0.30438  0.05139  1.0000
  N   N5        1.0  0.4008799999999999  0.3856  0.17847  1.0000
  H   H22       1.0  0.3171699999999999  0.42819999999999997  0.23782000000000006  1.0000
  C   C35       1.0  0.42987999999999993  0.25367  0.1912  1.0000
  H   H23       1.0  0.33064  0.20192999999999997  0.20628  1.0000
  H   H24       1.0  0.4703499999999999  0.24067999999999995  0.25938000000000005  1.0000
  H   H25       1.0  0.50984  0.21348  0.11703000000000002  1.0000
  O   O17       1.0  0.16807  0.6212499999999999  0.81921  1.0000
  H   H26       1.0  0.08641999999999996  0.67276  0.86616  1.0000
  O   O18       1.0  0.31274  0.62557  0.13396  1.0000
  H   H27       1.0  0.21052  0.6244699999999999  0.17771  1.0000
  O   O19       1.0  0.1089  0.6879  0.03328  1.0000
  H   H28       1.0  0.13254  0.74828  0.08131  1.0000
  N   N6        1.0  0.6030299999999998  0.29173  0.74455  1.0000
  H   H29       1.0  0.6818199999999998  0.2988  0.67159  1.0000
  C   C36       1.0  0.5994199999999997  0.16573  0.78511  1.0000
  H   H30       1.0  0.6010699999999999  0.09736  0.7213900000000001  1.0000
  H   H31       1.0  0.5013299999999999  0.15557  0.8548400000000003  1.0000
  H   H32       1.0  0.6942099999999999  0.14349  0.8094600000000001  1.0000
