data_image0
_chemical_formula_structural       C120H72N48Ni12O48
_chemical_formula_sum              "C120 H72 N48 Ni12 O48"
_cell_length_a       17.64948
_cell_length_b       17.64948
_cell_length_c       17.64947
_cell_angle_alpha    90.0
_cell_angle_beta     90.00002
_cell_angle_gamma    90.0

_symmetry_space_group_name_H-M    'P 1'
_symmetry_Int_Tables_number       1

loop_
  _symmetry_equiv_pos_as_xyz
  'x,y,z'

loop_
  _atom_site_type_symbol
  _atom_site_label
  _atom_site_symmetry_multiplicity
  _atom_site_fract_x
  _atom_site_fract_y
  _atom_site_fract_z
  _atom_site_occupancy
  C   C1        1.0  0.68174  0.77822  0.21949  1.0000
  C   C2        1.0  0.31826  0.7805100000000001  0.22178000000000003  1.0000
  C   C3        1.0  0.90554  0.81638  0.61724  1.0000
  C   C4        1.0  0.10087  0.39309  0.8145100000000001  1.0000
  C   C5        1.0  0.90554  0.61724  0.18362  1.0000
  C   C6        1.0  0.10087  0.81451  0.60691  1.0000
  C   C7        1.0  0.90554  0.18362  0.38276  1.0000
  C   C8        1.0  0.81451  0.89913  0.60691  1.0000
  C   C9        1.0  0.18362  0.09446  0.38276  1.0000
  C   C10       1.0  0.60691  0.89913  0.18549  1.0000
  C   C11       1.0  0.38276  0.09446  0.81638  1.0000
  C   C12       1.0  0.18549  0.89913  0.39309  1.0000
  C   C13       1.0  0.22178  0.31826  0.78051  1.0000
  C   C14       1.0  0.81638  0.09446  0.61724  1.0000
  C   C15       1.0  0.39309  0.89913  0.8145100000000001  1.0000
  C   C16       1.0  0.61724  0.09446  0.18362  1.0000
  C   C17       1.0  0.18549  0.10087  0.60691  1.0000
  C   C18       1.0  0.81638  0.90554  0.38276  1.0000
  C   C19       1.0  0.39309  0.10087  0.18549  1.0000
  C   C20       1.0  0.61724  0.90554  0.81638  1.0000
  C   C21       1.0  0.81451  0.10087  0.39309  1.0000
  C   C22       1.0  0.18362  0.90554  0.61724  1.0000
  C   C23       1.0  0.60691  0.10087  0.8145100000000001  1.0000
  C   C24       1.0  0.7805100000000001  0.68174  0.22178000000000003  1.0000
  C   C25       1.0  0.38276  0.90554  0.18362  1.0000
  C   C26       1.0  0.31826  0.77822  0.78051  1.0000
  C   C27       1.0  0.68174  0.21949  0.22178000000000003  1.0000
  C   C28       1.0  0.77822  0.68174  0.78051  1.0000
  C   C29       1.0  0.21949  0.31826  0.22178000000000003  1.0000
  C   C30       1.0  0.21949  0.22178  0.68174  1.0000
  C   C31       1.0  0.77822  0.7805100000000001  0.31826  1.0000
  C   C32       1.0  0.21949  0.77822  0.31826  1.0000
  C   C33       1.0  0.31826  0.21949  0.77822  1.0000
  C   C34       1.0  0.77822  0.21949  0.68174  1.0000
  C   C35       1.0  0.7805100000000001  0.22178  0.31826  1.0000
  C   C36       1.0  0.22178  0.7805100000000001  0.68174  1.0000
  C   C37       1.0  0.7805100000000001  0.77822  0.68174  1.0000
  C   C38       1.0  0.22178  0.21949  0.31826  1.0000
  C   C39       1.0  0.63354  0.82987  0.82655  1.0000
  C   C40       1.0  0.36646  0.17345  0.17013  1.0000
  C   C41       1.0  0.17013  0.63354  0.82655  1.0000
  C   C42       1.0  0.82655  0.36646  0.17013  1.0000
  C   C43       1.0  0.36646  0.17013  0.82655  1.0000
  C   C44       1.0  0.22178  0.68174  0.21949  1.0000
  C   C45       1.0  0.63354  0.82655  0.17013  1.0000
  C   C46       1.0  0.82987  0.36646  0.82655  1.0000
  C   C47       1.0  0.17345  0.63354  0.17013  1.0000
  C   C48       1.0  0.63354  0.17013  0.17345  1.0000
  C   C49       1.0  0.36646  0.82655  0.82987  1.0000
  C   C50       1.0  0.17013  0.36646  0.17345  1.0000
  C   C51       1.0  0.82655  0.63354  0.82987  1.0000
  C   C52       1.0  0.36646  0.82987  0.17345  1.0000
  C   C53       1.0  0.63354  0.17345  0.82987  1.0000
  C   C54       1.0  0.82987  0.63354  0.17345  1.0000
  C   C55       1.0  0.7805100000000001  0.31826  0.77822  1.0000
  C   C56       1.0  0.17345  0.36646  0.82987  1.0000
  C   C57       1.0  0.82655  0.17013  0.63354  1.0000
  C   C58       1.0  0.17013  0.82655  0.36646  1.0000
  C   C59       1.0  0.82655  0.82987  0.36646  1.0000
  C   C60       1.0  0.17013  0.17345  0.63354  1.0000
  C   C61       1.0  0.17345  0.17013  0.36646  1.0000
  C   C62       1.0  0.82987  0.82655  0.63354  1.0000
  C   C63       1.0  0.17345  0.82987  0.63354  1.0000
  C   C64       1.0  0.82987  0.17345  0.36646  1.0000
  C   C65       1.0  0.71419  0.71188  0.19074  1.0000
  C   C66       1.0  0.31826  0.22178  0.21949  1.0000
  C   C67       1.0  0.28812  0.28581  0.80926  1.0000
  C   C68       1.0  0.28812  0.71419  0.19074  1.0000
  C   C69       1.0  0.71419  0.28812  0.80926  1.0000
  C   C70       1.0  0.28581  0.28812  0.19074  1.0000
  C   C71       1.0  0.71188  0.71419  0.80926  1.0000
  C   C72       1.0  0.71188  0.28581  0.19074  1.0000
  C   C73       1.0  0.28581  0.71188  0.80926  1.0000
  C   C74       1.0  0.19074  0.71419  0.71188  1.0000
  C   C75       1.0  0.80926  0.28813  0.28581  1.0000
  C   C76       1.0  0.19074  0.28812  0.71419  1.0000
  C   C77       1.0  0.68174  0.7805100000000001  0.77822  1.0000
  C   C78       1.0  0.80926  0.71419  0.28812  1.0000
  C   C79       1.0  0.19074  0.28581  0.28812  1.0000
  C   C80       1.0  0.80926  0.71188  0.71419  1.0000
  C   C81       1.0  0.19074  0.71188  0.28581  1.0000
  C   C82       1.0  0.80926  0.28581  0.71188  1.0000
  C   C83       1.0  0.71188  0.19074  0.71419  1.0000
  C   C84       1.0  0.28581  0.80926  0.28812  1.0000
  C   C85       1.0  0.71419  0.19074  0.28812  1.0000
  C   C86       1.0  0.28812  0.80926  0.71419  1.0000
  C   C87       1.0  0.28812  0.19074  0.28581  1.0000
  C   C88       1.0  0.77822  0.31826  0.21949  1.0000
  C   C89       1.0  0.71419  0.80926  0.71188  1.0000
  C   C90       1.0  0.28581  0.19074  0.71188  1.0000
  C   C91       1.0  0.71188  0.80926  0.28581  1.0000
  C   C92       1.0  0.60691  0.81451  0.89913  1.0000
  C   C93       1.0  0.38276  0.18362  0.09446  1.0000
  C   C94       1.0  0.18549  0.60691  0.89913  1.0000
  C   C95       1.0  0.81638  0.38276  0.09446  1.0000
  C   C96       1.0  0.39309  0.18549  0.89913  1.0000
  C   C97       1.0  0.61724  0.81638  0.09446  1.0000
  C   C98       1.0  0.81451  0.39309  0.89913  1.0000
  C   C99       1.0  0.21949  0.68174  0.77822  1.0000
  C   C100      1.0  0.18362  0.61724  0.09446  1.0000
  C   C101      1.0  0.60691  0.18549  0.10087  1.0000
  C   C102      1.0  0.38276  0.81638  0.90554  1.0000
  C   C103      1.0  0.18549  0.39309  0.10087  1.0000
  C   C104      1.0  0.81638  0.61724  0.90554  1.0000
  C   C105      1.0  0.39309  0.81451  0.10087  1.0000
  C   C106      1.0  0.61724  0.18362  0.90554  1.0000
  C   C107      1.0  0.81451  0.60691  0.10087  1.0000
  C   C108      1.0  0.18362  0.38276  0.90554  1.0000
  C   C109      1.0  0.89913  0.60691  0.8145100000000001  1.0000
  C   C110      1.0  0.68174  0.22178  0.78051  1.0000
  C   C111      1.0  0.09446  0.38276  0.18362  1.0000
  C   C112      1.0  0.89913  0.18549  0.60691  1.0000
  C   C113      1.0  0.09446  0.81638  0.38276  1.0000
  C   C114      1.0  0.89913  0.39309  0.18549  1.0000
  C   C115      1.0  0.09446  0.61724  0.81638  1.0000
  C   C116      1.0  0.89913  0.81451  0.39309  1.0000
  C   C117      1.0  0.09446  0.18362  0.61724  1.0000
  C   C118      1.0  0.10087  0.60691  0.18549  1.0000
  C   C119      1.0  0.90554  0.38276  0.81638  1.0000
  C   C120      1.0  0.10087  0.18549  0.39309  1.0000
  H   H1        1.0  0.69393  0.68897  0.13873  1.0000
  H   H2        1.0  0.86127  0.31103  0.30607  1.0000
  H   H3        1.0  0.13873  0.31103  0.69393  1.0000
  H   H4        1.0  0.86127  0.69393  0.31103  1.0000
  H   H5        1.0  0.13873  0.30607  0.31103  1.0000
  H   H6        1.0  0.86127  0.68897  0.69393  1.0000
  H   H7        1.0  0.13873  0.68897  0.30607  1.0000
  H   H8        1.0  0.86127  0.30607  0.68897  1.0000
  H   H9        1.0  0.68897  0.13873  0.69393  1.0000
  H   H10       1.0  0.30607  0.86127  0.31103  1.0000
  H   H11       1.0  0.69393  0.13873  0.31103  1.0000
  H   H12       1.0  0.31103  0.30607  0.86127  1.0000
  H   H13       1.0  0.31103  0.86127  0.69393  1.0000
  H   H14       1.0  0.31103  0.13873  0.30607  1.0000
  H   H15       1.0  0.69393  0.86127  0.68897  1.0000
  H   H16       1.0  0.30607  0.13873  0.68897  1.0000
  H   H17       1.0  0.68897  0.86127  0.30607  1.0000
  H   H18       1.0  0.56596  0.71618  0.87237  1.0000
  H   H19       1.0  0.3485  0.26175  0.03156  1.0000
  H   H20       1.0  0.28382  0.56596  0.87237  1.0000
  H   H21       1.0  0.73825  0.3485  0.03156  1.0000
  H   H22       1.0  0.43404  0.28382  0.87237  1.0000
  H   H23       1.0  0.31103  0.69393  0.13873  1.0000
  H   H24       1.0  0.6515  0.73825  0.03156  1.0000
  H   H25       1.0  0.71618  0.43404  0.87237  1.0000
  H   H26       1.0  0.26175  0.6515  0.03156  1.0000
  H   H27       1.0  0.56596  0.28382  0.12763  1.0000
  H   H28       1.0  0.3485  0.73825  0.96844  1.0000
  H   H29       1.0  0.28382  0.43404  0.12763  1.0000
  H   H30       1.0  0.73825  0.6515  0.96844  1.0000
  H   H31       1.0  0.43404  0.71618  0.12763  1.0000
  H   H32       1.0  0.6515  0.26175  0.96844  1.0000
  H   H33       1.0  0.71618  0.56596  0.12763  1.0000
  H   H34       1.0  0.69393  0.31103  0.86127  1.0000
  H   H35       1.0  0.26175  0.3485  0.96844  1.0000
  H   H36       1.0  0.87237  0.56596  0.71618  1.0000
  H   H37       1.0  0.03156  0.3485  0.26175  1.0000
  H   H38       1.0  0.87237  0.28382  0.56596  1.0000
  H   H39       1.0  0.03156  0.73825  0.3485  1.0000
  H   H40       1.0  0.87237  0.43404  0.28382  1.0000
  H   H41       1.0  0.03156  0.6515  0.73825  1.0000
  H   H42       1.0  0.87237  0.71618  0.43404  1.0000
  H   H43       1.0  0.03156  0.26175  0.6515  1.0000
  H   H44       1.0  0.12763  0.56596  0.28382  1.0000
  H   H45       1.0  0.30607  0.31103  0.13873  1.0000
  H   H46       1.0  0.96844  0.3485  0.73825  1.0000
  H   H47       1.0  0.12763  0.28382  0.43404  1.0000
  H   H48       1.0  0.96844  0.73825  0.6515  1.0000
  H   H49       1.0  0.12763  0.43404  0.71618  1.0000
  H   H50       1.0  0.96844  0.6515  0.26175  1.0000
  H   H51       1.0  0.12763  0.71618  0.56596  1.0000
  H   H52       1.0  0.96844  0.26175  0.3485  1.0000
  H   H53       1.0  0.71618  0.87237  0.56596  1.0000
  H   H54       1.0  0.26175  0.03156  0.3485  1.0000
  H   H55       1.0  0.56596  0.87237  0.28382  1.0000
  H   H56       1.0  0.68897  0.69393  0.86127  1.0000
  H   H57       1.0  0.3485  0.03156  0.73825  1.0000
  H   H58       1.0  0.28382  0.87237  0.43404  1.0000
  H   H59       1.0  0.73825  0.03156  0.6515  1.0000
  H   H60       1.0  0.43404  0.87237  0.71618  1.0000
  H   H61       1.0  0.6515  0.03156  0.26176  1.0000
  H   H62       1.0  0.28382  0.12763  0.56596  1.0000
  H   H63       1.0  0.73825  0.96844  0.3485  1.0000
  H   H64       1.0  0.43404  0.12763  0.28382  1.0000
  H   H65       1.0  0.6515  0.96844  0.73825  1.0000
  H   H66       1.0  0.71618  0.12763  0.43404  1.0000
  H   H67       1.0  0.68897  0.30607  0.13873  1.0000
  H   H68       1.0  0.26176  0.96844  0.6515  1.0000
  H   H69       1.0  0.56596  0.12763  0.71618  1.0000
  H   H70       1.0  0.3485  0.96844  0.26176  1.0000
  H   H71       1.0  0.30607  0.68897  0.86127  1.0000
  H   H72       1.0  0.13873  0.69393  0.68897  1.0000
  N   N1        1.0  0.58484  0.87972  0.9321900000000001  1.0000
  N   N2        1.0  0.41516000000000003  0.87972  0.9321900000000001  1.0000
  N   N3        1.0  0.12028  0.41516000000000003  0.06781000000000001  1.0000
  N   N4        1.0  0.87972  0.58484  0.9321900000000001  1.0000
  N   N5        1.0  0.41516000000000003  0.87972  0.06781000000000001  1.0000
  N   N6        1.0  0.58484  0.12028  0.9321900000000001  1.0000
  N   N7        1.0  0.87972  0.58484  0.06781000000000001  1.0000
  N   N8        1.0  0.12028  0.41516000000000003  0.9321900000000001  1.0000
  N   N9        1.0  0.9321899999999999  0.58484  0.87972  1.0000
  N   N10       1.0  0.06781  0.41516000000000003  0.12028000000000001  1.0000
  N   N11       1.0  0.9321899999999999  0.12028  0.58484  1.0000
  N   N12       1.0  0.41516000000000003  0.12028  0.06781000000000001  1.0000
  N   N13       1.0  0.06781  0.87972  0.41516  1.0000
  N   N14       1.0  0.9321899999999999  0.41516000000000003  0.12028000000000001  1.0000
  N   N15       1.0  0.06781  0.58484  0.87972  1.0000
  N   N16       1.0  0.9321899999999999  0.87972  0.41516  1.0000
  N   N17       1.0  0.06781  0.12028  0.58484  1.0000
  N   N18       1.0  0.06781  0.58484  0.12028000000000001  1.0000
  N   N19       1.0  0.9321899999999999  0.41516000000000003  0.87972  1.0000
  N   N20       1.0  0.06781  0.12028  0.41516  1.0000
  N   N21       1.0  0.9321899999999999  0.87972  0.58484  1.0000
  N   N22       1.0  0.06781  0.41516000000000003  0.87972  1.0000
  N   N23       1.0  0.12028  0.58484  0.9321900000000001  1.0000
  N   N24       1.0  0.9321899999999999  0.58484  0.12028000000000001  1.0000
  N   N25       1.0  0.06781  0.87972  0.58484  1.0000
  N   N26       1.0  0.9321899999999999  0.12028  0.41516  1.0000
  N   N27       1.0  0.87972  0.9321899999999999  0.58484  1.0000
  N   N28       1.0  0.12028  0.06781  0.41516  1.0000
  N   N29       1.0  0.58484  0.9321899999999999  0.12028000000000001  1.0000
  N   N30       1.0  0.41516000000000003  0.06781  0.87972  1.0000
  N   N31       1.0  0.12028  0.9321899999999999  0.41516  1.0000
  N   N32       1.0  0.87972  0.06781  0.58484  1.0000
  N   N33       1.0  0.41516000000000003  0.9321899999999999  0.87972  1.0000
  N   N34       1.0  0.87972  0.41516000000000003  0.06781000000000001  1.0000
  N   N35       1.0  0.58484  0.06781  0.12028000000000001  1.0000
  N   N36       1.0  0.12028  0.06781  0.58484  1.0000
  N   N37       1.0  0.87972  0.9321899999999999  0.41516  1.0000
  N   N38       1.0  0.41516000000000003  0.06781  0.12028000000000001  1.0000
  N   N39       1.0  0.58484  0.9321899999999999  0.87972  1.0000
  N   N40       1.0  0.87972  0.06781  0.41516  1.0000
  N   N41       1.0  0.12028  0.9321899999999999  0.58484  1.0000
  N   N42       1.0  0.58484  0.06781  0.87972  1.0000
  N   N43       1.0  0.41516000000000003  0.9321899999999999  0.12028000000000001  1.0000
  N   N44       1.0  0.41516000000000003  0.12028  0.9321900000000001  1.0000
  N   N45       1.0  0.58484  0.87972  0.06781000000000001  1.0000
  N   N46       1.0  0.87972  0.41516000000000003  0.9321900000000001  1.0000
  N   N47       1.0  0.12028  0.58484  0.06781000000000001  1.0000
  N   N48       1.0  0.58484  0.12028  0.06781000000000001  1.0000
  Ni  Ni1       1.0  0.5  0.8809200000000001  0.0  1.0000
  Ni  Ni2       1.0  0.11907999999999999  0.0  0.5  1.0000
  Ni  Ni3       1.0  0.5  0.0  0.11908000000000002  1.0000
  Ni  Ni4       1.0  0.5  0.0  0.88092  1.0000
  Ni  Ni5       1.0  0.5  0.11907999999999999  0.0  1.0000
  Ni  Ni6       1.0  0.11907999999999999  0.5  0.0  1.0000
  Ni  Ni7       1.0  0.8809200000000001  0.5  0.0  1.0000
  Ni  Ni8       1.0  0.0  0.5  0.88092  1.0000
  Ni  Ni9       1.0  5.998993647789484e-24  0.5  0.11908000000000002  1.0000
  Ni  Ni10      1.0  0.0  0.11907999999999999  0.5  1.0000
  Ni  Ni11      1.0  0.0  0.8809200000000001  0.5  1.0000
  Ni  Ni12      1.0  0.8809200000000001  0.0  0.5  1.0000
  O   O1        1.0  0.57302  0.747  0.9188099999999999  1.0000
  O   O2        1.0  0.39462  0.74718  0.9377  1.0000
  O   O3        1.0  0.253  0.42698  0.08119  1.0000
  O   O4        1.0  0.74718  0.60538  0.9377  1.0000
  O   O5        1.0  0.42698  0.747  0.08119  1.0000
  O   O6        1.0  0.60538  0.25282  0.9377  1.0000
  O   O7        1.0  0.747  0.57302  0.08119  1.0000
  O   O8        1.0  0.25282  0.39462  0.9377  1.0000
  O   O9        1.0  0.91881  0.57302  0.747  1.0000
  O   O10       1.0  0.062299999999999994  0.39462  0.25282000000000004  1.0000
  O   O11       1.0  0.91881  0.253  0.57302  1.0000
  O   O12       1.0  0.39462  0.25282  0.06230000000000001  1.0000
  O   O13       1.0  0.062299999999999994  0.74718  0.39462  1.0000
  O   O14       1.0  0.91881  0.42698  0.253  1.0000
  O   O15       1.0  0.062299999999999994  0.60538  0.74718  1.0000
  O   O16       1.0  0.91881  0.747  0.42698  1.0000
  O   O17       1.0  0.062299999999999994  0.25282  0.60538  1.0000
  O   O18       1.0  0.08119  0.57302  0.253  1.0000
  O   O19       1.0  0.9377000000000001  0.39462  0.74718  1.0000
  O   O20       1.0  0.08119  0.253  0.42698  1.0000
  O   O21       1.0  0.9377000000000001  0.74718  0.60538  1.0000
  O   O22       1.0  0.08119  0.42698  0.747  1.0000
  O   O23       1.0  0.253  0.57302  0.9188099999999999  1.0000
  O   O24       1.0  0.9377000000000001  0.60538  0.25282000000000004  1.0000
  O   O25       1.0  0.08119  0.747  0.57302  1.0000
  O   O26       1.0  0.9377000000000001  0.25282  0.39462  1.0000
  O   O27       1.0  0.747  0.91881  0.57302  1.0000
  O   O28       1.0  0.25282  0.062299999999999994  0.39462  1.0000
  O   O29       1.0  0.57302  0.91881  0.253  1.0000
  O   O30       1.0  0.39462  0.062299999999999994  0.74718  1.0000
  O   O31       1.0  0.253  0.91881  0.42698  1.0000
  O   O32       1.0  0.74718  0.062299999999999994  0.60538  1.0000
  O   O33       1.0  0.42698  0.91881  0.747  1.0000
  O   O34       1.0  0.74718  0.39462  0.06230000000000001  1.0000
  O   O35       1.0  0.60538  0.062299999999999994  0.25282000000000004  1.0000
  O   O36       1.0  0.253  0.08119  0.57302  1.0000
  O   O37       1.0  0.74718  0.9377000000000001  0.39462  1.0000
  O   O38       1.0  0.42698  0.08119  0.253  1.0000
  O   O39       1.0  0.60538  0.9377000000000001  0.74718  1.0000
  O   O40       1.0  0.747  0.08119  0.42698  1.0000
  O   O41       1.0  0.25282  0.9377000000000001  0.60538  1.0000
  O   O42       1.0  0.57302  0.08119  0.747  1.0000
  O   O43       1.0  0.39462  0.9377000000000001  0.25282000000000004  1.0000
  O   O44       1.0  0.42698  0.253  0.9188099999999999  1.0000
  O   O45       1.0  0.60538  0.74718  0.06230000000000001  1.0000
  O   O46       1.0  0.747  0.42698  0.9188099999999999  1.0000
  O   O47       1.0  0.25282  0.60538  0.06230000000000001  1.0000
  O   O48       1.0  0.57302  0.253  0.08119  1.0000
