data_image0
_chemical_formula_structural       O8C4O8C4H4O4V4C4H4C32H4CNCNCNCN
_chemical_formula_sum              "O20 C48 H12 V4 N4"
_cell_length_a       16.87526
_cell_length_b       7.25407
_cell_length_c       14.925229999999999
_cell_angle_alpha    90.00026000000001
_cell_angle_beta     94.58477000000002
_cell_angle_gamma    89.99967

_space_group_name_H-M_alt    "P 1"
_space_group_IT_number       1

loop_
  _space_group_symop_operation_xyz
  'x, y, z'

loop_
  _atom_site_type_symbol
  _atom_site_label
  _atom_site_symmetry_multiplicity
  _atom_site_fract_x
  _atom_site_fract_y
  _atom_site_fract_z
  _atom_site_occupancy
  O   O1        1.0  0.66346  0.3617599999999999  0.16596999999999995  1.0000
  O   O2        1.0  0.33654000000000006  0.63824  0.8340299999999998  1.0000
  O   O3        1.0  0.83654  0.8617599999999997  0.3340299999999999  1.0000
  O   O4        1.0  0.16346  0.13824  0.66597  1.0000
  O   O5        1.0  0.8271  0.68987  0.16373  1.0000
  O   O6        1.0  0.1729  0.31013  0.83627  1.0000
  O   O7        1.0  0.6729  0.18987  0.33627  1.0000
  O   O8        1.0  0.3271  0.8101299999999998  0.6637299999999998  1.0000
  C   C1        1.0  0.85374  0.52303  0.14414  1.0000
  C   C2        1.0  0.14626  0.47697  0.85586  1.0000
  C   C3        1.0  0.64626  0.02302999999999999  0.35586999999999996  1.0000
  C   C4        1.0  0.3537400000000001  0.97697  0.6441299999999998  1.0000
  O   O9        1.0  0.66349  0.69137  0.15549999999999994  1.0000
  O   O10       1.0  0.33651  0.3086299999999999  0.8444999999999998  1.0000
  O   O11       1.0  0.83651  0.19136999999999996  0.3445  1.0000
  O   O12       1.0  0.16349000000000005  0.8086299999999997  0.6555  1.0000
  O   O13       1.0  0.67177  0.8633199999999998  0.32574  1.0000
  O   O14       1.0  0.32822999999999997  0.13668  0.6742599999999997  1.0000
  O   O15       1.0  0.82823  0.36332  0.17426  1.0000
  O   O16       1.0  0.17177  0.63668  0.82574  1.0000
  C   C5        1.0  0.63897  0.52391  0.12989  1.0000
  C   C6        1.0  0.36103  0.47609  0.8701099999999998  1.0000
  C   C7        1.0  0.86102  0.023909999999999994  0.3701199999999999  1.0000
  C   C8        1.0  0.13898000000000002  0.97609  0.62988  1.0000
  H   H1        1.0  0.10001  0.10133  0.21414  1.0000
  H   H2        1.0  0.89999  0.89867  0.78586  1.0000
  H   H3        1.0  0.39998  0.60164  0.28583  1.0000
  H   H4        1.0  0.60001  0.3983699999999999  0.7141699999999997  1.0000
  O   O17       1.0  0.75291  0.5288  0.30586  1.0000
  O   O18       1.0  0.24709  0.4711999999999999  0.69414  1.0000
  O   O19       1.0  0.74709  0.028799999999999992  0.19413999999999995  1.0000
  O   O20       1.0  0.2529100000000001  0.9712  0.8058599999999999  1.0000
  V   V1        1.0  0.74946  0.80301  0.23964  1.0000
  V   V2        1.0  0.25054  0.19698999999999994  0.7603599999999998  1.0000
  V   V3        1.0  0.7505400000000002  0.30301  0.26036  1.0000
  V   V4        1.0  0.24945999999999996  0.69699  0.73964  1.0000
  C   C9        1.0  0.4690000000000001  0.9946999999999998  0.53032  1.0000
  C   C10       1.0  0.531  0.005299999999999998  0.4696799999999999  1.0000
  C   C11       1.0  0.030999999999999996  0.49470999999999987  0.9696799999999998  1.0000
  C   C12       1.0  0.9690100000000001  0.5053  0.030319999999999993  1.0000
  H   H5        1.0  0.78502  0.0082  0.69044  1.0000
  H   H6        1.0  0.21498  0.9917999999999998  0.3095599999999999  1.0000
  H   H7        1.0  0.71499  0.50791  0.8095699999999998  1.0000
  H   H8        1.0  0.28501  0.4920899999999999  0.19043  1.0000
  C   C13       1.0  0.0187  0.06950999999999999  0.3164  1.0000
  C   C14       1.0  0.9813000000000001  0.9304899999999998  0.6836  1.0000
  C   C15       1.0  0.48130000000000006  0.56968  0.18359  1.0000
  C   C16       1.0  0.5187  0.43031999999999987  0.8164099999999997  1.0000
  C   C17       1.0  0.09344999999999999  0.06802  0.2838799999999999  1.0000
  C   C18       1.0  0.90655  0.93198  0.7161199999999998  1.0000
  C   C19       1.0  0.40654  0.56826  0.2161  1.0000
  C   C20       1.0  0.59345  0.43174  0.7839  1.0000
  C   C21       1.0  0.15875000000000003  0.010399999999999996  0.3388499999999999  1.0000
  C   C22       1.0  0.84125  0.9895999999999999  0.6611499999999998  1.0000
  C   C23       1.0  0.34125  0.51064  0.16114  1.0000
  C   C24       1.0  0.6587500000000001  0.4893599999999999  0.8388599999999999  1.0000
  C   C25       1.0  0.15079  0.96289  0.4285199999999999  1.0000
  C   C26       1.0  0.8492200000000001  0.03710999999999998  0.57148  1.0000
  C   C27       1.0  0.34921  0.46305  0.07148  1.0000
  C   C28       1.0  0.6507900000000001  0.53695  0.9285199999999998  1.0000
  C   C29       1.0  0.07712  0.9909599999999997  0.4673499999999999  1.0000
  C   C30       1.0  0.92288  0.009039999999999996  0.53265  1.0000
  C   C31       1.0  0.4228800000000001  0.49104  0.03265  1.0000
  C   C32       1.0  0.57712  0.50896  0.9673499999999998  1.0000
  C   C33       1.0  0.008559999999999991  0.02787  0.4074799999999999  1.0000
  C   C34       1.0  0.9914400000000001  0.9721299999999998  0.59252  1.0000
  C   C35       1.0  0.49144  0.52795  0.09250999999999997  1.0000
  C   C36       1.0  0.50856  0.4720399999999999  0.9074899999999998  1.0000
  C   C37       1.0  0.06872  0.9770299999999997  0.56164  1.0000
  C   C38       1.0  0.93127  0.022959999999999994  0.43835  1.0000
  C   C39       1.0  0.43127  0.4770299999999999  0.93836  1.0000
  C   C40       1.0  0.5687300000000001  0.52297  0.06164  1.0000
  C   C41       1.0  0.41641999999999996  0.9860599999999998  0.5819399999999998  1.0000
  C   C42       1.0  0.58358  0.01394  0.41806  1.0000
  C   C43       1.0  0.08357000000000002  0.48606  0.91806  1.0000
  C   C44       1.0  0.91643  0.51394  0.08193999999999999  1.0000
  H   H9        1.0  0.96912  0.10603999999999997  0.2692999999999999  1.0000
  H   H10       1.0  0.03088000000000001  0.8939599999999998  0.7307  1.0000
  H   H11       1.0  0.53088  0.60621  0.23067999999999994  1.0000
  H   H12       1.0  0.46912  0.39379  0.76932  1.0000
  C   C45       1.0  0.21204  0.84354  0.46812999999999994  1.0000
  N   N1        1.0  0.26079  0.7423899999999998  0.49622  1.0000
  C   C46       1.0  0.78796  0.15646  0.53187  1.0000
  N   N2        1.0  0.73921  0.25761  0.50378  1.0000
  C   C47       1.0  0.28795  0.34369  0.03189  1.0000
  N   N3        1.0  0.23919  0.24254999999999993  0.00381  1.0000
  C   C48       1.0  0.7120500000000001  0.6563099999999997  0.96811  1.0000
  N   N4        1.0  0.76081  0.7574499999999998  0.9961899999999998  1.0000
