data_image0
_chemical_formula_structural       Ba2C44H54N2O24P8
_chemical_formula_sum              "Ba2 C44 H54 N2 O24 P8"
_cell_length_a       8.17587
_cell_length_b       14.925390000000002
_cell_length_c       15.06238
_cell_angle_alpha    97.43129999999998
_cell_angle_beta     99.34426
_cell_angle_gamma    97.82169

_space_group_name_H-M_alt    "P 1"
_space_group_IT_number       1

loop_
  _space_group_symop_operation_xyz
  'x, y, z'

loop_
  _atom_site_type_symbol
  _atom_site_label
  _atom_site_symmetry_multiplicity
  _atom_site_fract_x
  _atom_site_fract_y
  _atom_site_fract_z
  _atom_site_occupancy
  Ba  Ba1       1.0  0.15473000000000003  0.54377  0.45818000000000003  1.0000
  Ba  Ba2       1.0  0.65543  0.45622  0.54175  1.0000
  C   C1        1.0  0.34364  0.76421  0.12356000000000003  1.0000
  C   C2        1.0  0.10596000000000005  0.07877000000000003  0.5546400000000001  1.0000
  C   C3        1.0  0.9638199999999999  0.89072  0.53821  1.0000
  C   C4        1.0  0.9188599999999997  0.7909700000000001  0.27093000000000006  1.0000
  C   C5        1.0  0.12490000000000008  0.92508  0.5893700000000002  1.0000
  C   C6        1.0  0.19575000000000004  0.016490000000000025  0.5957100000000001  1.0000
  C   C7        1.0  0.8937199999999998  0.79626  0.5268900000000001  1.0000
  C   C8        1.0  0.73018  0.76735  0.47861  1.0000
  C   C9        1.0  0.9165200000000001  0.20386000000000004  0.4745200000000001  1.0000
  C   C10       1.0  0.84732  0.10930000000000002  0.4631800000000001  1.0000
  C   C11       1.0  0.94076  0.04725  0.50533  1.0000
  C   C12       1.0  0.3774  0.73774  0.21820000000000006  1.0000
  C   C13       1.0  0.68738  0.07462000000000003  0.4111400000000001  1.0000
  C   C14       1.0  0.61551  0.9835700000000003  0.40584  1.0000
  C   C15       1.0  0.7041  0.92162  0.4482600000000001  1.0000
  C   C16       1.0  0.94741  0.88669  0.24597000000000005  1.0000
  C   C17       1.0  0.8698199999999996  0.95301  0.49691  1.0000
  C   C18       1.0  0.6329  0.8288200000000002  0.4423000000000001  1.0000
  C   C19       1.0  0.07803000000000006  0.23338  0.52568  1.0000
  C   C20       1.0  0.23111000000000004  0.46779  0.7662200000000001  1.0000
  C   C21       1.0  0.13029999999999997  0.43634  0.82547  1.0000
  C   C22       1.0  0.1932499999999999  0.45007  0.9194  1.0000
  C   C23       1.0  0.5900900000000001  0.73675  0.6785100000000002  1.0000
  C   C24       1.0  0.35859  0.49751  0.9556100000000001  1.0000
  C   C25       1.0  0.45205999999999985  0.534  0.8933400000000001  1.0000
  C   C26       1.0  0.3887000000000001  0.5193800000000002  0.8002200000000003  1.0000
  C   C27       1.0  0.59902  0.55658  0.09044000000000003  1.0000
  C   C28       1.0  0.7170599999999998  0.34324  0.26420000000000005  1.0000
  C   C29       1.0  0.66776  0.5684200000000003  0.18286  1.0000
  C   C30       1.0  0.41150999999999993  0.48803  0.21320000000000006  1.0000
  C   C31       1.0  0.34117  0.47575  0.12019000000000003  1.0000
  C   C32       1.0  0.43208  0.51132  0.056410000000000016  1.0000
  C   C33       1.0  0.5719100000000001  0.53754  0.24450000000000005  1.0000
  C   C34       1.0  0.62793  0.84046  0.7039100000000003  1.0000
  C   C35       1.0  0.6488199999999997  0.31533  0.16262  1.0000
  C   C36       1.0  0.08307000000000007  0.65885  0.7377000000000002  1.0000
  C   C37       1.0  0.12529000000000004  0.68596  0.84074  1.0000
  C   C38       1.0  0.1855  0.2567  0.31031  1.0000
  C   C39       1.0  0.050300000000000004  0.18465000000000004  0.24749000000000004  1.0000
  C   C40       1.0  0.89472  0.20981  0.7286200000000003  1.0000
  C   C41       1.0  0.87327  0.11371000000000002  0.75318  1.0000
  C   C42       1.0  0.37433000000000005  0.21557  0.7772300000000002  1.0000
  C   C43       1.0  0.46285  0.21445  0.87471  1.0000
  C   C44       1.0  0.17576000000000006  0.17198000000000002  0.5623500000000002  1.0000
  H   H1        1.0  0.29342000000000007  0.67265  0.21803000000000006  1.0000
  H   H2        1.0  0.12440000000000004  0.29996  0.35632000000000014  1.0000
  H   H3        1.0  0.21096000000000004  0.7745200000000001  0.10597  1.0000
  H   H4        1.0  0.96851  0.21837  0.20074000000000006  1.0000
  H   H5        1.0  0.97246  0.14548  0.28784  1.0000
  H   H6        1.0  0.10912999999999999  0.13594  0.20551000000000003  1.0000
  H   H7        1.0  0.5102100000000002  0.7272900000000001  0.23308000000000006  1.0000
  H   H8        1.0  0.36723  0.70903  0.07256000000000003  1.0000
  H   H9        1.0  0.70466  0.71191  0.66149  1.0000
  H   H10       1.0  0.48756000000000005  0.7195600000000001  0.6179600000000002  1.0000
  H   H11       1.0  0.73372  0.86023  0.7627  1.0000
  H   H12       1.0  0.52746  0.26822  0.15169  1.0000
  H   H13       1.0  0.6629700000000001  0.87207  0.6455300000000003  1.0000
  H   H14       1.0  0.51527  0.8669  0.7222700000000002  1.0000
  H   H15       1.0  0.42785000000000006  0.8285200000000001  0.12119000000000003  1.0000
  H   H16       1.0  0.92874  0.93763  0.3025000000000001  1.0000
  H   H17       1.0  0.80509  0.20955000000000001  0.66469  1.0000
  H   H18       1.0  0.024960000000000062  0.22804000000000002  0.7171400000000002  1.0000
  H   H19       1.0  0.7430600000000002  0.09336000000000001  0.764  1.0000
  H   H20       1.0  0.89793  0.06422  0.69726  1.0000
  H   H21       1.0  0.96271  0.11135  0.81639  1.0000
  H   H22       1.0  0.26099  0.16191000000000005  0.7606  1.0000
  H   H23       1.0  0.62903  0.37623  0.13012000000000004  1.0000
  H   H24       1.0  0.33796000000000004  0.2844  0.7732700000000002  1.0000
  H   H25       1.0  0.5709499999999997  0.27138  0.8940800000000002  1.0000
  H   H26       1.0  0.008110000000000022  0.78971  0.3345200000000001  1.0000
  H   H27       1.0  0.5123600000000003  0.14897000000000005  0.8783400000000002  1.0000
  H   H28       1.0  0.19963000000000003  0.88213  0.6251300000000001  1.0000
  H   H29       1.0  0.32132  0.0377  0.63465  1.0000
  H   H30       1.0  0.4900500000000001  0.9625400000000001  0.3668400000000001  1.0000
  H   H31       1.0  0.61438  0.11726  0.37417  1.0000
  H   H32       1.0  0.67525  0.6961600000000001  0.47244000000000014  1.0000
  H   H33       1.0  0.13226000000000002  0.3047400000000001  0.53256  1.0000
  H   H34       1.0  0.73913  0.28045  0.129  1.0000
  H   H35       1.0  0.6821099999999999  0.58103  0.0473  1.0000
  H   H36       1.0  0.10992000000000005  0.42417000000000005  0.9619600000000001  1.0000
  H   H37       1.0  0.21791  0.4355  0.09949  1.0000
  H   H38       1.0  0.7884099999999998  0.77667  0.2832900000000001  1.0000
  H   H39       1.0  0.5726800000000002  0.57667  0.9145000000000002  1.0000
  H   H40       1.0  0.62686  0.54578  0.3160000000000001  1.0000
  H   H41       1.0  0.18231  0.45778  0.69382  1.0000
  H   H42       1.0  0.07749000000000003  0.9035  0.23354000000000005  1.0000
  H   H43       1.0  0.8571  0.89077  0.1836  1.0000
  H   H44       1.0  0.6213999999999996  0.3729  0.29716  1.0000
  H   H45       1.0  0.1901800000000001  0.63314  0.7129500000000002  1.0000
  H   H46       1.0  0.83171  0.3950300000000001  0.27372000000000013  1.0000
  H   H47       1.0  0.23797000000000001  0.15993000000000004  0.39194  1.0000
  H   H48       1.0  0.37213  0.17809  0.32121  1.0000
  H   H49       1.0  0.24904000000000012  0.1696500000000001  0.9218800000000003  1.0000
  H   H50       1.0  0.29987000000000014  0.28457000000000005  0.9346600000000003  1.0000
  H   H51       1.0  0.9717499999999998  0.6043  0.7204000000000003  1.0000
  H   H52       1.0  0.24411  0.7355800000000001  0.8602900000000002  1.0000
  H   H53       1.0  0.14006000000000007  0.62511  0.8742600000000003  1.0000
  H   H54       1.0  0.022440000000000092  0.7178  0.8653000000000002  1.0000
  N   N1        1.0  0.30405  0.21134  0.3646700000000001  1.0000
  N   N2        1.0  0.3492099999999999  0.22407  0.93961  1.0000
  O   O1        1.0  0.17408  0.72306  0.55393  1.0000
  O   O2        1.0  0.7856699999999998  0.4359400000000001  0.8182800000000002  1.0000
  O   O3        1.0  0.8613800000000001  0.27137  0.7997000000000002  1.0000
  O   O4        1.0  0.90157  0.60958  0.55084  1.0000
  O   O5        1.0  0.4082199999999999  0.45213  0.39017  1.0000
  O   O6        1.0  0.6754900000000001  0.5471400000000001  0.7218200000000002  1.0000
  O   O7        1.0  0.54215  0.6985600000000002  0.75261  1.0000
  O   O8        1.0  0.51199  0.17531000000000002  0.5472100000000002  1.0000
  O   O9        1.0  0.48441  0.19592  0.7176100000000002  1.0000
  O   O10       1.0  0.3703499999999999  0.66508  0.38827  1.0000
  O   O11       1.0  0.2925200000000001  0.82535  0.4493300000000001  1.0000
  O   O12       1.0  0.2717800000000001  0.30684  0.25479000000000007  1.0000
  O   O13       1.0  0.05125000000000009  0.7363100000000001  0.6992200000000002  1.0000
  O   O14       1.0  0.34496  0.80741  0.2819800000000001  1.0000
  O   O15       1.0  0.13479  0.4528  0.27815  1.0000
  O   O16       1.0  0.93765  0.6186200000000001  0.3408600000000001  1.0000
  O   O17       1.0  0.0042900000000000256  0.55807  0.17888  1.0000
  O   O18       1.0  0.9462600000000001  0.72725  0.19970000000000004  1.0000
  O   O19       1.0  0.6362  0.27689  0.4460400000000001  1.0000
  O   O20       1.0  0.90872  0.39041000000000003  0.4490800000000001  1.0000
  O   O21       1.0  0.43993  0.33491  0.61165  1.0000
  O   O22       1.0  0.7542199999999999  0.26542  0.3007200000000001  1.0000
  O   O23       1.0  0.40206000000000003  0.5478600000000002  0.60975  1.0000
  O   O24       1.0  0.8726300000000002  0.38137  0.6590600000000002  1.0000
  P   P1        1.0  0.004200000000000071  0.7092300000000001  0.5803500000000003  1.0000
  P   P2        1.0  0.305  0.42557000000000006  0.2909000000000001  1.0000
  P   P3        1.0  0.8892499999999998  0.6168600000000002  0.22391000000000005  1.0000
  P   P4        1.0  0.8060799999999998  0.29076  0.4195700000000001  1.0000
  P   P5        1.0  0.9123999999999999  0.38286  0.77701  1.0000
  P   P6        1.0  0.41089000000000003  0.78308  0.39162000000000013  1.0000
  P   P7        1.0  0.50091  0.57917  0.72355  1.0000
  P   P8        1.0  0.40018000000000004  0.21713000000000002  0.6094200000000001  1.0000
