data_image0
_chemical_formula_structural       C21H14N2O9Zn2
_chemical_formula_sum              "C21 H14 N2 O9 Zn2"
_cell_length_a       7.82239
_cell_length_b       8.58948
_cell_length_c       12.10999
_cell_angle_alpha    92.3712
_cell_angle_beta     101.16738999999998
_cell_angle_gamma    94.13849

_space_group_name_H-M_alt    "P 1"
_space_group_IT_number       1

loop_
  _space_group_symop_operation_xyz
  'x, y, z'

loop_
  _atom_site_type_symbol
  _atom_site_label
  _atom_site_symmetry_multiplicity
  _atom_site_fract_x
  _atom_site_fract_y
  _atom_site_fract_z
  _atom_site_occupancy
  C   C1        1.0  0.04241000000000001  0.79431  0.49383  1.0000
  C   C2        1.0  0.15889999999999993  0.50408  0.83208  1.0000
  C   C3        1.0  0.061789999999999984  0.95776  0.4894  1.0000
  C   C4        1.0  0.10596  0.5037  0.71032  1.0000
  C   C5        1.0  0.9215099999999996  0.04202999999999999  0.4837799999999999  1.0000
  C   C6        1.0  0.9533900000000004  0.20549  0.49842  1.0000
  C   C7        1.0  0.89238  0.48828000000000005  0.2897  1.0000
  C   C8        1.0  0.80992  0.28713  0.0035499999999999998  1.0000
  C   C9        1.0  0.82982  0.45659  0.17019999999999996  1.0000
  C   C10       1.0  0.07285999999999992  0.5948400000000001  0.8997299999999999  1.0000
  C   C11       1.0  0.144  0.62487  0.01335  1.0000
  C   C12       1.0  0.39581  0.48361  0.99013  1.0000
  C   C13       1.0  0.30587  0.57291  0.0583  1.0000
  C   C14       1.0  0.6744200000000001  0.97204  0.35349  1.0000
  C   C15       1.0  0.3102  0.43331  0.88018  1.0000
  C   C16       1.0  0.56828  0.4432  0.02712  1.0000
  C   C17       1.0  0.64123  0.33233  0.96328  1.0000
  C   C18       1.0  0.54341  0.26648  0.86161  1.0000
  C   C19       1.0  0.3797699999999999  0.31663  0.82014  1.0000
  C   C20       1.0  0.67146  0.51288  0.12529  1.0000
  C   C21       1.0  0.9026399999999998  0.34635  0.10868999999999997  1.0000
  H   H1        1.0  0.02623999999999999  0.30136  0.1438  1.0000
  H   H2        1.0  0.3074099999999999  0.26202  0.74111  1.0000
  H   H3        1.0  0.19467999999999994  0.010239999999999997  0.4973699999999999  1.0000
  H   H4        1.0  0.7465399999999998  0.89849  0.30322  1.0000
  H   H5        1.0  0.6680700000000002  0.09147  0.32131  1.0000
  H   H6        1.0  0.53853  0.91784  0.34149999999999997  1.0000
  H   H7        1.0  0.46992  0.37504000000000004  0.41652999999999996  1.0000
  H   H8        1.0  0.53009  0.62497  0.58345  1.0000
  H   H9        1.0  0.5946099999999999  0.17844999999999997  0.8131199999999998  1.0000
  H   H10       1.0  0.8664199999999999  0.20157  0.9561999999999999  1.0000
  H   H11       1.0  0.6277399999999999  0.60687  0.17203999999999997  1.0000
  H   H12       1.0  0.9538799999999998  0.64692  0.8640099999999998  1.0000
  H   H13       1.0  0.35538  0.6009  0.14694  1.0000
  H   H14       1.0  0.07677000000000002  0.6935600000000001  0.06586  1.0000
  N   N1        1.0  0.4347999999999999  0.45669  0.47085  1.0000
  N   N2        1.0  0.5651999999999998  0.54331  0.52915  1.0000
  O   O1        1.0  0.8930599999999999  0.73888  0.50715  1.0000
  O   O2        1.0  0.17225  0.71113  0.4884699999999999  1.0000
  O   O3        1.0  0.9447  0.52073  0.6676  1.0000
  O   O4        1.0  0.22389  0.49298  0.64892  1.0000
  O   O5        1.0  0.82775  0.28887000000000007  0.51153  1.0000
  O   O6        1.0  0.10694000000000001  0.26112  0.49285  1.0000
  O   O7        1.0  0.7761099999999997  0.50702  0.35107999999999995  1.0000
  O   O8        1.0  0.055299999999999974  0.47927  0.3324  1.0000
  O   O9        1.0  0.75001  0.9775500000000001  0.46936  1.0000
  Zn  Zn1       1.0  0.81358  0.51853  0.51247  1.0000
  Zn  Zn2       1.0  0.18642  0.48147  0.48752999999999996  1.0000
