data_image0
_chemical_formula_structural       C114H30O42Zn6
_chemical_formula_sum              "C114 H30 O42 Zn6"
_cell_length_a       16.73806
_cell_length_b       16.683289999999996
_cell_length_c       16.89094
_cell_angle_alpha    65.56113
_cell_angle_beta     65.80309
_cell_angle_gamma    65.71950999999999

_space_group_name_H-M_alt    "P 1"
_space_group_IT_number       1

loop_
  _space_group_symop_operation_xyz
  'x, y, z'

loop_
  _atom_site_type_symbol
  _atom_site_label
  _atom_site_symmetry_multiplicity
  _atom_site_fract_x
  _atom_site_fract_y
  _atom_site_fract_z
  _atom_site_occupancy
  C   C1        1.0  0.3251500000000002  0.9552600000000001  0.4574999999999999  1.0000
  C   C2        1.0  0.3261800000000001  0.46056  0.9473299999999998  1.0000
  C   C3        1.0  0.5486700000000001  0.41428000000000004  0.9830699999999998  1.0000
  C   C4        1.0  0.9409  0.47746  0.60734  1.0000
  C   C5        1.0  0.91744  0.57024  0.43194999999999995  1.0000
  C   C6        1.0  0.27664000000000005  0.005550000000000068  0.8221099999999998  1.0000
  C   C7        1.0  0.68638  0.07576999999999995  0.16016  1.0000
  C   C8        1.0  0.9004300000000001  0.85845  0.3102199999999999  1.0000
  C   C9        1.0  0.9588000000000003  0.18859999999999993  0.72766  1.0000
  C   C10       1.0  0.8243800000000002  0.2766  0.004789999999999998  1.0000
  C   C11       1.0  0.17198000000000002  0.71842  0.007609999999999998  1.0000
  C   C12       1.0  0.19711000000000015  0.95007  0.7394499999999998  1.0000
  C   C13       1.0  0.9473500000000006  0.71068  0.5751099999999998  1.0000
  C   C14       1.0  0.76982  0.12368000000000001  0.24604999999999994  1.0000
  C   C15       1.0  0.7507900000000001  0.20656000000000002  0.9302399999999997  1.0000
  C   C16       1.0  0.24889999999999995  0.79398  0.07298  1.0000
  C   C17       1.0  0.87268  0.76551  0.21922999999999995  1.0000
  C   C18       1.0  0.9987000000000003  0.2794999999999999  0.81237  1.0000
  C   C19       1.0  0.92192  0.33330000000000004  0.4628099999999999  1.0000
  C   C20       1.0  0.44693999999999995  0.005350000000000042  0.4514999999999999  1.0000
  C   C21       1.0  0.53501  0.04199999999999997  0.53855  1.0000
  C   C22       1.0  0.92207  0.47611000000000003  0.4715799999999999  1.0000
  C   C23       1.0  0.9378999999999998  0.57119  0.56759  1.0000
  C   C24       1.0  0.45849000000000006  0.45896999999999993  0.97644  1.0000
  C   C25       1.0  0.5401000000000004  0.5400099999999998  0.02881999999999999  1.0000
  C   C26       1.0  0.9599700000000002  0.17986000000000002  0.4381599999999999  1.0000
  C   C27       1.0  0.6685100000000002  0.06900000000000008  0.5384299999999997  1.0000
  C   C28       1.0  0.9912  0.83976  0.57541  1.0000
  C   C29       1.0  0.17974000000000004  0.4382900000000001  0.9614699999999998  1.0000
  C   C30       1.0  0.82019  0.5615699999999998  0.03916  1.0000
  C   C31       1.0  0.43146000000000007  0.97734  0.17717999999999995  1.0000
  C   C32       1.0  0.5622900000000002  0.03808000000000008  0.8205499999999998  1.0000
  C   C33       1.0  0.5608000000000001  0.81997  0.04108  1.0000
  C   C34       1.0  0.4388400000000002  0.18019000000000004  0.9597899999999998  1.0000
  C   C35       1.0  0.9958000000000001  0.5753  0.83554  1.0000
  C   C36       1.0  0.9571600000000001  0.43984  0.17949  1.0000
  C   C37       1.0  0.82015  0.040640000000000016  0.56117  1.0000
  C   C38       1.0  0.91762  0.46882000000000007  0.3309  1.0000
  C   C39       1.0  0.17974000000000004  0.9616  0.43848999999999994  1.0000
  C   C40       1.0  0.40359000000000006  0.9857399999999996  0.4077799999999999  1.0000
  C   C41       1.0  0.58102  0.056250000000000064  0.5836099999999997  1.0000
  C   C42       1.0  0.9198400000000004  0.4264099999999999  0.4218399999999999  1.0000
  C   C43       1.0  0.94878  0.61775  0.61511  1.0000
  C   C44       1.0  0.4155899999999999  0.41647  0.95433  1.0000
  C   C45       1.0  0.58323  0.58297  0.04999999999999999  1.0000
  C   C46       1.0  0.2795400000000001  0.9419399999999999  0.4101999999999999  1.0000
  C   C47       1.0  0.7191  0.06951  0.58894  1.0000
  C   C48       1.0  0.92492  0.41384999999999994  0.27983  1.0000
  C   C49       1.0  0.9588800000000001  0.572  0.7035599999999997  1.0000
  C   C50       1.0  0.9725100000000008  0.6198699999999999  0.74915  1.0000
  C   C51       1.0  0.41211  0.2814499999999999  0.9326599999999999  1.0000
  C   C52       1.0  0.58757  0.71876  0.06916  1.0000
  C   C53       1.0  0.58995  0.06349000000000003  0.72132  1.0000
  C   C54       1.0  0.39615000000000017  0.97223  0.27234  1.0000
  C   C55       1.0  0.72008  0.58861  0.06484  1.0000
  C   C56       1.0  0.27960999999999997  0.41135000000000005  0.9372199999999999  1.0000
  C   C57       1.0  0.9650600000000003  0.75437  0.6211399999999998  1.0000
  C   C58       1.0  0.9286900000000007  0.28116  0.41016  1.0000
  C   C59       1.0  0.4468800000000002  0.056940000000000074  0.7125999999999998  1.0000
  C   C60       1.0  0.46154  0.3294400000000001  0.9403999999999998  1.0000
  C   C61       1.0  0.5055900000000001  0.04543000000000001  0.26398999999999995  1.0000
  C   C62       1.0  0.92415  0.75819  0.4925699999999999  1.0000
  C   C63       1.0  0.9143400000000004  0.29571  0.55606  1.0000
  C   C64       1.0  0.71113  0.44638  0.056469999999999985  1.0000
  C   C65       1.0  0.28672  0.55259  0.95029  1.0000
  C   C66       1.0  0.2931900000000002  0.94176  0.5519499999999998  1.0000
  C   C67       1.0  0.7003600000000002  0.08588000000000001  0.44358999999999993  1.0000
  C   C68       1.0  0.5558  0.2941200000000001  0.9326099999999998  1.0000
  C   C69       1.0  0.44334999999999997  0.70595  0.07079  1.0000
  C   C70       1.0  0.9038900000000001  0.56502  0.29596  1.0000
  C   C71       1.0  0.53765  0.6704199999999999  0.06288  1.0000
  C   C72       1.0  0.95086  0.48159000000000013  0.7442899999999998  1.0000
  C   C73       1.0  0.32519  0.93297  0.32408  1.0000
  C   C74       1.0  0.6737500000000002  0.08155999999999998  0.67491  1.0000
  C   C75       1.0  0.91448  0.32591  0.32517  1.0000
  C   C76       1.0  0.96485  0.71273  0.7109499999999997  1.0000
  C   C77       1.0  0.32704000000000005  0.3286200000000001  0.9171999999999998  1.0000
  C   C78       1.0  0.6731100000000005  0.67187  0.08385  1.0000
  C   C79       1.0  0.6545400000000002  0.07504000000000002  0.3962499999999999  1.0000
  C   C80       1.0  0.32785  0.9719799999999998  0.5944299999999998  1.0000
  C   C81       1.0  0.9522599999999999  0.4309700000000001  0.69475  1.0000
  C   C82       1.0  0.5391600000000001  0.05806000000000006  0.6738799999999998  1.0000
  C   C83       1.0  0.9035  0.61659  0.34511  1.0000
  C   C84       1.0  0.39995  0.66829  0.04450999999999999  1.0000
  C   C85       1.0  0.5989100000000002  0.33110000000000006  0.9600799999999998  1.0000
  C   C86       1.0  0.55888  0.05085  0.30681  1.0000
  C   C87       1.0  0.40705  0.025810000000000013  0.67645  1.0000
  C   C88       1.0  0.3209200000000001  0.59012  0.9857899999999998  1.0000
  C   C89       1.0  0.67714  0.40812  0.021309999999999992  1.0000
  C   C90       1.0  0.9285400000000001  0.33862  0.6029299999999997  1.0000
  C   C91       1.0  0.9184599999999999  0.7124400000000001  0.4417399999999999  1.0000
  C   C92       1.0  0.6875700000000002  0.09075000000000001  0.30087999999999987  1.0000
  C   C93       1.0  0.4353000000000001  0.0017599999999999936  0.31333  1.0000
  C   C94       1.0  0.2843399999999999  0.97471  0.68568  1.0000
  C   C95       1.0  0.9628299999999997  0.33499  0.7321  1.0000
  C   C96       1.0  0.89266  0.71279  0.30811  1.0000
  C   C97       1.0  0.30773999999999996  0.71113  0.04129999999999999  1.0000
  C   C98       1.0  0.69097  0.28808000000000006  0.9639099999999999  1.0000
  C   C99       1.0  0.64137  0.07576000000000002  0.2565799999999999  1.0000
  C   C100      1.0  0.32348  0.002749999999999994  0.72645  1.0000
  C   C101      1.0  0.26872000000000007  0.67258  0.01058  1.0000
  C   C102      1.0  0.72912  0.32517000000000007  0.9973199999999998  1.0000
  C   C103      1.0  0.94576  0.28973  0.6886399999999998  1.0000
  C   C104      1.0  0.6726100000000003  0.53896  0.056919999999999984  1.0000
  C   C105      1.0  0.9035700000000001  0.75979  0.35474  1.0000
  C   C106      1.0  0.5270700000000001  0.03397000000000004  0.4014099999999999  1.0000
  C   C107      1.0  0.45063  0.021130000000000006  0.58689  1.0000
  C   C108      1.0  0.9311300000000002  0.43061000000000005  0.5604399999999998  1.0000
  C   C109      1.0  0.9250100000000003  0.6179400000000002  0.4801199999999999  1.0000
  C   C110      1.0  0.40947  0.5442599999999999  0.99574  1.0000
  C   C111      1.0  0.5889900000000002  0.45441  0.010149999999999996  1.0000
  C   C112      1.0  0.5732600000000004  0.04858000000000002  0.44558999999999993  1.0000
  C   C113      1.0  0.40858000000000017  0.99914  0.5444799999999997  1.0000
  C   C114      1.0  0.44994  0.58464  0.022299999999999993  1.0000
  H   H1        1.0  0.40346  0.08511000000000007  0.7682299999999997  1.0000
  H   H2        1.0  0.40346  0.76116  0.10085999999999998  1.0000
  H   H3        1.0  0.8904499999999999  0.6006900000000001  0.23124999999999996  1.0000
  H   H4        1.0  0.9362300000000006  0.4505800000000001  0.8165099999999997  1.0000
  H   H5        1.0  0.26506  0.84806  0.33768  1.0000
  H   H6        1.0  0.7479099999999996  0.14856  0.66904  1.0000
  H   H7        1.0  0.8532099999999999  0.32685  0.24931999999999996  1.0000
  H   H8        1.0  0.01549000000000002  0.7594200000000001  0.7598399999999997  1.0000
  H   H9        1.0  0.33520999999999995  0.2549500000000001  0.8490999999999999  1.0000
  H   H10       1.0  0.66612  0.7463200000000001  0.15044999999999994  1.0000
  H   H11       1.0  0.20249000000000006  0.029400000000000044  0.8459899999999998  1.0000
  H   H12       1.0  0.5177199999999998  0.07951000000000003  0.19221999999999995  1.0000
  H   H13       1.0  0.7264200000000002  0.12256  0.11375999999999997  1.0000
  H   H14       1.0  0.8478400000000001  0.90562  0.2770499999999999  1.0000
  H   H15       1.0  0.020830000000000064  0.14346000000000006  0.7465699999999997  1.0000
  H   H16       1.0  0.8492700000000002  0.20206  0.023159999999999993  1.0000
  H   H17       1.0  0.14722000000000002  0.7929000000000002  0.9834299999999998  1.0000
  H   H18       1.0  0.1876499999999999  0.9083600000000001  0.80995  1.0000
  H   H19       1.0  0.7652300000000002  0.1857  0.18917  1.0000
  H   H20       1.0  0.82197  0.20202000000000006  0.8932299999999997  1.0000
  H   H21       1.0  0.17874000000000004  0.79767  0.11476999999999997  1.0000
  H   H22       1.0  0.9124300000000004  0.81139  0.16779999999999995  1.0000
  H   H23       1.0  0.90519  0.8322499999999999  0.4701499999999999  1.0000
  H   H24       1.0  0.97883  0.2181699999999999  0.8589  1.0000
  H   H25       1.0  0.8939900000000004  0.2341  0.59348  1.0000
  H   H26       1.0  0.7656600000000001  0.40259  0.08699999999999997  1.0000
  H   H27       1.0  0.23129000000000002  0.59762  0.92134  1.0000
  H   H28       1.0  0.24252000000000004  0.90534  0.59294  1.0000
  H   H29       1.0  0.7582600000000002  0.11271000000000002  0.4062599999999999  1.0000
  H   H30       1.0  0.59571  0.23991000000000004  0.9013099999999997  1.0000
  O   O1        1.0  0.9829400000000001  0.13895  0.51016  1.0000
  O   O2        1.0  0.9829400000000001  0.51016  0.13894999999999993  1.0000
  O   O3        1.0  0.86105  0.017060000000000023  0.4898399999999999  1.0000
  O   O4        1.0  0.13895000000000002  0.98294  0.51016  1.0000
  O   O5        1.0  0.8677  0.02588  0.61234  1.0000
  O   O6        1.0  0.13230000000000006  0.9741199999999999  0.38766  1.0000
  O   O7        1.0  0.02588000000000003  0.6123400000000001  0.8676999999999998  1.0000
  O   O8        1.0  0.97412  0.38766  0.1323  1.0000
  O   O9        1.0  0.6123400000000001  0.8677  0.02588  1.0000
  O   O10       1.0  0.38766  0.13230000000000003  0.9741199999999999  1.0000
  O   O11       1.0  0.38766  0.97412  0.1323  1.0000
  O   O12       1.0  0.01706000000000006  0.86105  0.4898399999999999  1.0000
  O   O13       1.0  0.6123400000000004  0.025880000000000028  0.8676999999999998  1.0000
  O   O14       1.0  0.13230000000000006  0.38766  0.9741199999999999  1.0000
  O   O15       1.0  0.8677000000000005  0.61234  0.02588  1.0000
  O   O16       1.0  0.97412  0.13230000000000003  0.38766  1.0000
  O   O17       1.0  0.02587999999999998  0.8677  0.61234  1.0000
  O   O18       1.0  0.2976600000000002  0.8916999999999996  0.28738  1.0000
  O   O19       1.0  0.7118700000000002  0.10663000000000003  0.7166799999999998  1.0000
  O   O20       1.0  0.8951700000000004  0.28058  0.2858199999999999  1.0000
  O   O21       1.0  0.95315  0.7646299999999999  0.76284  1.0000
  O   O22       1.0  0.2862500000000002  0.29252000000000006  0.8885599999999998  1.0000
  O   O23       1.0  0.1389500000000001  0.51016  0.9829399999999998  1.0000
  O   O24       1.0  0.7146499999999999  0.7086200000000001  0.11092999999999997  1.0000
  O   O25       1.0  0.3200999999999999  0.97771  0.87599  1.0000
  O   O26       1.0  0.68398  0.019450000000000002  0.13322  1.0000
  O   O27       1.0  0.9593500000000001  0.88648  0.3060499999999999  1.0000
  O   O28       1.0  0.8991400000000002  0.15558  0.74301  1.0000
  O   O29       1.0  0.8772800000000004  0.31881999999999994  0.9868799999999998  1.0000
  O   O30       1.0  0.11822999999999996  0.67388  0.03626999999999998  1.0000
  O   O31       1.0  0.13377000000000003  0.9796899999999998  0.7069799999999998  1.0000
  O   O32       1.0  0.8431800000000002  0.08081  0.26248  1.0000
  O   O33       1.0  0.72365  0.14186000000000007  0.9476899999999998  1.0000
  O   O34       1.0  0.8610500000000003  0.48984  0.01706  1.0000
  O   O35       1.0  0.27607  0.86018  0.04956  1.0000
  O   O36       1.0  0.8086200000000001  0.76189  0.20488999999999996  1.0000
  O   O37       1.0  0.054370000000000064  0.29914000000000013  0.8249399999999998  1.0000
  O   O38       1.0  0.51016  0.98294  0.13894999999999993  1.0000
  O   O39       1.0  0.48984000000000016  0.01706000000000005  0.8610499999999999  1.0000
  O   O40       1.0  0.48984000000000005  0.86105  0.01706  1.0000
  O   O41       1.0  0.5101600000000001  0.13895000000000005  0.9829399999999998  1.0000
  O   O42       1.0  0.01706000000000006  0.48984  0.8610499999999999  1.0000
  Zn  Zn1       1.0  0.00488000000000004  0.00488000000000006  0.5835899999999998  1.0000
  Zn  Zn2       1.0  0.9951200000000002  0.9951199999999996  0.41641  1.0000
  Zn  Zn3       1.0  0.004879999999999995  0.58359  0.004879999999999998  1.0000
  Zn  Zn4       1.0  0.9951200000000002  0.4164100000000001  0.9951199999999998  1.0000
  Zn  Zn5       1.0  0.58359  0.004879999999999998  0.004879999999999998  1.0000
  Zn  Zn6       1.0  0.4164100000000003  0.9951199999999998  0.9951199999999998  1.0000
