data_image0
_chemical_formula_structural       C58H36N4O12Zn2
_chemical_formula_sum              "C58 H36 N4 O12 Zn2"
_cell_length_a       7.81101
_cell_length_b       8.92193
_cell_length_c       26.62208
_cell_angle_alpha    92.95493
_cell_angle_beta     86.00225
_cell_angle_gamma    92.63962999999998

_symmetry_space_group_name_H-M    'P 1'
_symmetry_Int_Tables_number       1

loop_
  _symmetry_equiv_pos_as_xyz
  'x,y,z'

loop_
  _atom_site_type_symbol
  _atom_site_label
  _atom_site_symmetry_multiplicity
  _atom_site_fract_x
  _atom_site_fract_y
  _atom_site_fract_z
  _atom_site_occupancy
  C   C1        1.0  0.5439199999999997  0.794  0.4995  1.0000
  C   C2        1.0  0.20100000000000007  0.7225200000000002  0.14706  1.0000
  C   C3        1.0  0.50474  0.52695  0.64869  1.0000
  C   C4        1.0  0.48962000000000006  0.52522  0.35248  1.0000
  C   C5        1.0  0.24117000000000005  0.7362  0.04197  1.0000
  C   C6        1.0  0.1371100000000001  0.48578  0.98072  1.0000
  C   C7        1.0  0.13416000000000006  0.4728  0.03353  1.0000
  C   C8        1.0  0.2902200000000001  0.73207  0.99007  1.0000
  C   C9        1.0  0.18304  0.6005400000000001  0.0638  1.0000
  C   C10       1.0  0.2307200000000001  0.6093099999999999  0.95929  1.0000
  C   C11       1.0  0.25302  0.8685400000000002  0.07322  1.0000
  C   C12       1.0  0.45603000000000005  0.20601000000000003  0.5005  1.0000
  C   C13       1.0  0.05639999999999999  0.3785  0.94835  1.0000
  C   C14       1.0  0.22271000000000005  0.86235  0.12539  1.0000
  C   C15       1.0  0.0754  0.39021000000000006  0.89615  1.0000
  C   C16       1.0  0.50192  0.50218  0.59454  1.0000
  C   C17       1.0  0.49759000000000014  0.49987  0.40549  1.0000
  C   C18       1.0  0.40684000000000015  0.83997  0.9686  1.0000
  C   C19       1.0  0.09287000000000002  0.33602000000000004  0.05707  1.0000
  C   C20       1.0  0.5631400000000002  0.9555100000000001  0.5067  1.0000
  C   C21       1.0  0.43654  0.04448999999999999  0.49337  1.0000
  C   C22       1.0  0.44667000000000023  0.69398  0.8351  1.0000
  C   C23       1.0  0.26972  0.6077200000000001  0.90687  1.0000
  C   C24       1.0  0.19202  0.44577  0.18947  1.0000
  C   C25       1.0  0.22414000000000006  0.50597  0.8230300000000002  1.0000
  C   C26       1.0  0.20381000000000005  0.70696  0.19883  1.0000
  C   C27       1.0  0.47164  0.42512  0.73161  1.0000
  C   C28       1.0  0.4099800000000001  0.69024  0.29012  1.0000
  C   C29       1.0  0.51121  0.4058  0.67955  1.0000
  C   C30       1.0  0.4601300000000001  0.66942  0.33851  1.0000
  C   C31       1.0  0.4672000000000002  0.6695200000000001  0.6695300000000001  1.0000
  C   C32       1.0  0.49223000000000006  0.40774000000000005  0.316  1.0000
  C   C33       1.0  0.4281500000000002  0.6904  0.72095  1.0000
  C   C34       1.0  0.18165000000000006  0.59169  0.11627  1.0000
  C   C35       1.0  0.43363000000000007  0.43248  0.26877  1.0000
  C   C36       1.0  0.42453000000000024  0.5688899999999999  0.75231  1.0000
  C   C37       1.0  0.35460000000000014  0.5648  0.2597  1.0000
  C   C38       1.0  0.01740999999999999  0.4001600000000001  0.4383500000000001  1.0000
  C   C39       1.0  0.9826400000000004  0.6  0.56163  1.0000
  C   C40       1.0  0.46549  0.8308  0.26774  1.0000
  C   C41       1.0  0.38743  0.9610600000000001  0.28602  1.0000
  C   C42       1.0  0.3865900000000001  0.07905  0.25459  1.0000
  C   C43       1.0  0.4850600000000002  0.07729  0.20827  1.0000
  C   C44       1.0  0.58507  0.9551300000000001  0.19375  1.0000
  C   C45       1.0  0.3939400000000002  0.71064  0.88645  1.0000
  C   C46       1.0  0.5734400000000002  0.83003  0.22314  1.0000
  C   C47       1.0  0.45603000000000016  0.29161  0.7626600000000001  1.0000
  C   C48       1.0  0.33797000000000005  0.17391  0.75036  1.0000
  C   C49       1.0  0.28547  0.06814999999999999  0.78571  1.0000
  C   C50       1.0  0.3537400000000002  0.07664  0.83284  1.0000
  C   C51       1.0  0.48136000000000007  0.1859  0.84392  1.0000
  C   C52       1.0  0.53323  0.29306  0.80885  1.0000
  C   C53       1.0  0.7160400000000002  0.01414999999999999  0.53551  1.0000
  C   C54       1.0  0.28281  0.9859000000000001  0.46491  1.0000
  C   C55       1.0  0.15767000000000003  0.45261  0.13845  1.0000
  C   C56       1.0  0.46514  0.82428  0.918  1.0000
  C   C57       1.0  0.10911000000000003  0.32527  0.10876  1.0000
  C   C58       1.0  0.18729999999999997  0.50123  0.87511  1.0000
  H   H1        1.0  0.45928  0.7631200000000002  0.6455  1.0000
  H   H2        1.0  0.010479999999999996  0.3068  0.87235  1.0000
  H   H3        1.0  0.2820800000000001  0.97718  0.05767  1.0000
  H   H4        1.0  0.9744800000000003  0.28746  0.96282  1.0000
  H   H5        1.0  0.46357  0.93066  0.99127  1.0000
  H   H6        1.0  0.06014000000000002  0.23383  0.03564  1.0000
  H   H7        1.0  0.91622  0.32770000000000005  0.42101  1.0000
  H   H8        1.0  0.051329999999999994  0.4937500000000001  0.41308000000000006  1.0000
  H   H9        1.0  0.12564000000000006  0.32749  0.44195000000000007  1.0000
  H   H10       1.0  0.08389000000000005  0.6725000000000001  0.57894  1.0000
  H   H11       1.0  0.8744100000000002  0.67265  0.55801  1.0000
  H   H12       1.0  0.53444  0.29835000000000006  0.32431000000000004  1.0000
  H   H13       1.0  0.9487600000000002  0.5065  0.58693  1.0000
  H   H14       1.0  0.30426  0.96198  0.32038  1.0000
  H   H15       1.0  0.2992900000000001  0.16532000000000005  0.2662  1.0000
  H   H16       1.0  0.4802400000000002  0.16681  0.1826  1.0000
  H   H17       1.0  0.6614100000000003  0.95308  0.15821  1.0000
  H   H18       1.0  0.63786  0.72939  0.20950000000000002  1.0000
  H   H19       1.0  0.27590999999999993  0.17125000000000004  0.7151700000000001  1.0000
  H   H20       1.0  0.18709000000000003  0.98293  0.77728  1.0000
  H   H21       1.0  0.3050300000000001  0.99989  0.86091  1.0000
  H   H22       1.0  0.53494  0.19132000000000002  0.8804200000000001  1.0000
  H   H23       1.0  0.39188999999999996  0.7999700000000002  0.73606  1.0000
  H   H24       1.0  0.6247300000000003  0.3826  0.8189600000000001  1.0000
  H   H25       1.0  0.77864  0.9225800000000001  0.55296  1.0000
  H   H26       1.0  0.81476  0.06902  0.50968  1.0000
  H   H27       1.0  0.67417  0.09367  0.56699  1.0000
  H   H28       1.0  0.21986000000000008  0.07739  0.44753  1.0000
  H   H29       1.0  0.32364000000000004  0.90621  0.43342  1.0000
  H   H30       1.0  0.18462000000000006  0.9312600000000001  0.49095  1.0000
  H   H31       1.0  0.4547600000000001  0.35321  0.23817  1.0000
  H   H32       1.0  0.56236  0.90408  0.9033700000000001  1.0000
  H   H33       1.0  0.08714000000000002  0.21675  0.12507  1.0000
  H   H34       1.0  0.4851300000000003  0.76511  0.36414  1.0000
  H   H35       1.0  0.5362700000000002  0.29496  0.66275  1.0000
  H   H36       1.0  0.23070000000000002  0.96511  0.14865  1.0000
  N   N1        1.0  0.36304000000000003  0.59088  0.8044000000000001  1.0000
  N   N2        1.0  0.24966000000000005  0.57317  0.21598000000000003  1.0000
  N   N3        1.0  0.9503200000000002  0.45796  0.48688  1.0000
  N   N4        1.0  0.04968000000000002  0.54204  0.51312  1.0000
  O   O1        1.0  0.3892500000000002  0.73857  0.50322  1.0000
  O   O2        1.0  0.16184  0.31549  0.21226  1.0000
  O   O3        1.0  0.14683000000000002  0.81749  0.23091  1.0000
  O   O4        1.0  0.12480000000000002  0.42429  0.79138  1.0000
  O   O5        1.0  0.6107500000000002  0.26143  0.49678  1.0000
  O   O6        1.0  0.6783900000000003  0.71163  0.49481  1.0000
  O   O7        1.0  0.32161  0.28837  0.50519  1.0000
  O   O8        1.0  0.35544000000000014  0.51344  0.57545  1.0000
  O   O9        1.0  0.6445599999999999  0.48656000000000005  0.42455000000000004  1.0000
  O   O10       1.0  0.64459  0.4865  0.56704  1.0000
  O   O11       1.0  0.35541  0.5135  0.43296  1.0000
  O   O12       1.0  0.58125  0.77864  0.81621  1.0000
  Zn  Zn1       1.0  0.3069400000000001  0.5179900000000001  0.50562  1.0000
  Zn  Zn2       1.0  0.6930600000000005  0.48201000000000005  0.49438  1.0000
