data_image0
_chemical_formula_structural       Ba2C46H49O24P8SO3HSO3HF
_chemical_formula_sum              "Ba2 C46 H51 O30 P8 S2 F1"
_cell_length_a       8.2002
_cell_length_b       14.4203
_cell_length_c       14.99144
_cell_angle_alpha    95.27375
_cell_angle_beta     97.23724
_cell_angle_gamma    92.666

_space_group_name_H-M_alt    "P 1"
_space_group_IT_number       1

loop_
  _space_group_symop_operation_xyz
  'x, y, z'

loop_
  _atom_site_type_symbol
  _atom_site_label
  _atom_site_symmetry_multiplicity
  _atom_site_fract_x
  _atom_site_fract_y
  _atom_site_fract_z
  _atom_site_occupancy
  Ba  Ba1       1.0  0.8334  0.54331  0.45352  1.0000
  Ba  Ba2       1.0  0.35641999999999996  0.4567699999999999  0.5464799999999997  1.0000
  C   C1        1.0  0.57408  0.9019  0.24290999999999993  1.0000
  C   C2        1.0  0.55273  0.80119  0.26405  1.0000
  C   C3        1.0  0.56755  0.24212  0.26747  1.0000
  C   C4        1.0  0.62575  0.17486  0.19425999999999993  1.0000
  C   C5        1.0  0.1565  0.26583  0.8127  1.0000
  C   C6        1.0  0.12609  0.22049  0.89715  1.0000
  C   C7        1.0  0.64865  0.20848  0.75775  1.0000
  C   C8        1.0  0.63924  0.11363  0.79419  1.0000
  C   C9        1.0  0.8284800000000001  0.44318  0.83707  1.0000
  C   C10       1.0  0.8993800000000001  0.44910999999999995  0.93015  1.0000
  C   C11       1.0  0.05962  0.45671  0.11159  1.0000
  C   C12       1.0  0.03346999999999999  0.74407  0.19795  1.0000
  C   C13       1.0  0.92376  0.39591  0.08095  1.0000
  C   C14       1.0  0.82746  0.40537  0.99928  1.0000
  C   C15       1.0  0.12141999999999999  0.4708899999999999  0.20499  1.0000
  C   C16       1.0  0.26552  0.52787  0.23093  1.0000
  C   C17       1.0  0.07066  0.5305  0.79694  1.0000
  C   C18       1.0  0.13374  0.54604  0.89066  1.0000
  C   C19       1.0  0.05544000000000001  0.49964000000000003  0.95563  1.0000
  C   C20       1.0  0.27056  0.6083699999999999  0.92221  1.0000
  C   C21       1.0  0.3359  0.62065  0.01378  1.0000
  C   C22       1.0  0.27419  0.56664  0.07666  1.0000
  C   C23       1.0  0.98543  0.76843  0.10193  1.0000
  C   C24       1.0  0.12966999999999998  0.508  0.04804  1.0000
  C   C25       1.0  0.3498  0.57011  0.16779  1.0000
  C   C26       1.0  0.92072  0.47845  0.7728699999999998  1.0000
  C   C27       1.0  0.70635  0.94167  0.56415  1.0000
  C   C28       1.0  0.51299  0.8028  0.50301  1.0000
  C   C29       1.0  0.36233000000000004  0.7694300000000002  0.45321  1.0000
  C   C30       1.0  0.24992000000000003  0.83057  0.41826  1.0000
  C   C31       1.0  0.29269  0.92566  0.42567  1.0000
  C   C32       1.0  0.44581  0.96101  0.47191  1.0000
  C   C33       1.0  0.55716  0.90077  0.51389  1.0000
  C   C34       1.0  0.21017  0.74374  0.6424899999999999  1.0000
  C   C35       1.0  0.63543  0.09678  0.52428  1.0000
  C   C36       1.0  0.74796  0.03771  0.56623  1.0000
  C   C37       1.0  0.6789  0.19376  0.52766  1.0000
  C   C38       1.0  0.83276  0.22903000000000004  0.57045  1.0000
  C   C39       1.0  0.9481399999999999  0.1695  0.60559  1.0000
  C   C40       1.0  0.90498  0.07489  0.60625  1.0000
  C   C41       1.0  0.48554  0.05677999999999999  0.47736999999999996  1.0000
  C   C42       1.0  0.235  0.8492  0.66309  1.0000
  C   C43       1.0  0.99149  0.26361  0.37286  1.0000
  C   C44       1.0  0.97068  0.15709  0.36771  1.0000
  C   C45       1.0  0.7345800000000003  0.66869  0.72089  1.0000
  C   C46       1.0  0.75875  0.69585  0.82252  1.0000
  H   H1        1.0  0.63636  0.7921199999999999  0.32636  1.0000
  H   H2        1.0  0.35585  0.8677  0.70487  1.0000
  H   H3        1.0  0.23125  0.8833  0.59978  1.0000
  H   H4        1.0  0.13547  0.87611  0.70037  1.0000
  H   H5        1.0  0.89319  0.29507  0.40742  1.0000
  H   H6        1.0  0.11021  0.28464  0.41424  1.0000
  H   H7        1.0  0.83969  0.13349  0.36425  1.0000
  H   H8        1.0  0.037930000000000005  0.13186  0.42892  1.0000
  H   H9        1.0  0.018590000000000006  0.12317  0.3079  1.0000
  H   H10       1.0  0.85464  0.65328  0.69852  1.0000
  H   H11       1.0  0.64876  0.60578  0.70621  1.0000
  H   H12       1.0  0.70265  0.91783  0.23054  1.0000
  H   H13       1.0  0.85007  0.75618  0.83965  1.0000
  H   H14       1.0  0.8036099999999998  0.63705  0.8594299999999998  1.0000
  H   H15       1.0  0.63989  0.71515  0.84518  1.0000
  H   H16       1.0  0.42344000000000004  0.78705  0.27508  1.0000
  H   H17       1.0  0.5470299999999998  0.95007  0.30044  1.0000
  H   H18       1.0  0.65065  0.30578  0.28168  1.0000
  H   H19       1.0  0.55619  0.10617  0.18909  1.0000
  H   H20       1.0  0.6077  0.20138  0.12685  1.0000
  H   H21       1.0  0.75832  0.16393999999999997  0.21058  1.0000
  H   H22       1.0  0.48862000000000005  0.9135599999999999  0.18191  1.0000
  H   H23       1.0  0.021860000000000004  0.71317  0.053  1.0000
  H   H24       1.0  0.24081  0.32855  0.83261  1.0000
  H   H25       1.0  0.03720000000000002  0.28929  0.7818  1.0000
  H   H26       1.0  0.07341  0.27109  0.94428  1.0000
  H   H27       1.0  0.03787999999999997  0.15889  0.8787299999999999  1.0000
  H   H28       1.0  0.24343  0.19779  0.93145  1.0000
  H   H29       1.0  0.77961  0.22854000000000002  0.7549  1.0000
  H   H30       1.0  0.5775  0.20272  0.68948  1.0000
  H   H31       1.0  0.6969400000000001  0.06156000000000001  0.75094  1.0000
  H   H32       1.0  0.50864  0.08999999999999997  0.79507  1.0000
  H   H33       1.0  0.97264  0.67507  0.20424  1.0000
  H   H34       1.0  0.7054  0.11819  0.86396  1.0000
  H   H35       1.0  0.87749  0.35089  0.12651  1.0000
  H   H36       1.0  0.44129  0.66931  0.03378  1.0000
  H   H37       1.0  0.32926  0.64867  0.87664  1.0000
  H   H38       1.0  0.31592  0.53657  0.30156999999999995  1.0000
  H   H39       1.0  0.87096  0.46904  0.70212  1.0000
  H   H40       1.0  0.32783  0.69549  0.44633  1.0000
  H   H41       1.0  0.20492999999999997  0.97221  0.3968099999999999  1.0000
  H   H42       1.0  0.9964  0.030309999999999997  0.6348199999999999  1.0000
  H   H43       1.0  0.16885  0.73932  0.20933  1.0000
  H   H44       1.0  0.86796  0.30209  0.56897  1.0000
  H   H45       1.0  0.39675  0.09927  0.4438599999999999  1.0000
  H   H46       1.0  0.8501099999999999  0.77399  0.08852  1.0000
  H   H47       1.0  0.04844  0.83591  0.09221  1.0000
  H   H48       1.0  0.31832  0.71631  0.61443  1.0000
  H   H49       1.0  0.09840000000000003  0.72757  0.59273  1.0000
  O   O1        1.0  0.84123  0.44416  0.28043  1.0000
  O   O2        1.0  0.67053  0.7439300000000001  0.6783699999999999  1.0000
  O   O3        1.0  0.9826500000000001  0.81334  0.25905  1.0000
  O   O4        1.0  0.34848  0.55587  0.71962  1.0000
  O   O5        1.0  0.07683  0.55273  0.6063  1.0000
  O   O6        1.0  0.59176  0.38438  0.67232  1.0000
  O   O7        1.0  0.19276  0.70515  0.72298  1.0000
  O   O8        1.0  0.62909  0.38634999999999997  0.45924  1.0000
  O   O9        1.0  0.17252  0.33529  0.62892  1.0000
  O   O10       1.0  0.28325000000000006  0.16984  0.58655  1.0000
  O   O11       1.0  0.23028  0.20219  0.7553  1.0000
  O   O12       1.0  0.11285999999999999  0.44735  0.39371  1.0000
  O   O13       1.0  0.56061  0.61373  0.54077  1.0000
  O   O14       1.0  0.38746  0.27029  0.46720999999999996  1.0000
  O   O15       1.0  0.5624  0.19538999999999998  0.34433  1.0000
  O   O16       1.0  0.47819  0.4415  0.81691  1.0000
  O   O17       1.0  0.5784  0.27286  0.81476  1.0000
  O   O18       1.0  0.59794  0.6157  0.32769  1.0000
  O   O19       1.0  0.70095  0.5774  0.17175  1.0000
  O   O20       1.0  0.9890099999999998  0.29422  0.28611999999999993  1.0000
  O   O21       1.0  0.59155  0.74228  0.19108  1.0000
  O   O22       1.0  0.80224  0.7297399999999999  0.53285  1.0000
  O   O23       1.0  0.017179999999999973  0.66479  0.37107999999999997  1.0000
  O   O24       1.0  0.91373  0.83039  0.42419  1.0000
  P   P1        1.0  0.01860000000000001  0.41679  0.29597  1.0000
  P   P2        1.0  0.63566  0.71653  0.5609  1.0000
  P   P3        1.0  0.04197  0.78539  0.36927  1.0000
  P   P4        1.0  0.17109  0.58329  0.70403  1.0000
  P   P5        1.0  0.15936  0.21702000000000002  0.64283  1.0000
  P   P6        1.0  0.55861  0.62581  0.21199  1.0000
  P   P7        1.0  0.57032  0.26594  0.4478  1.0000
  P   P8        1.0  0.6227699999999999  0.38632  0.78846  1.0000
  S   S1        1.0  0.36471  0.26925  0.23186  1.0000
  O   O25       1.0  0.25134  0.18813  0.24426  1.0000
  O   O26       1.0  0.33917  0.35179  0.29491  1.0000
  O   O27       1.0  0.33127  0.29377  0.12391  1.0000
  H   H50       1.0  0.21208  0.27919  0.10514  1.0000
  S   S2        1.0  0.61692  0.40947  0.01307  1.0000
  O   O28       1.0  0.56063  0.49771  0.97815  1.0000
  O   O29       1.0  0.51203  0.32705  0.96659  1.0000
  O   O30       1.0  0.58902  0.4152  0.12194999999999999  1.0000
  H   H51       1.0  0.6221  0.35518  0.14163  1.0000
  F   F1        1.0  0.8134500000000001  0.89088  0.61254  1.0000
