data_image0
_chemical_formula_structural       C84H60N16Ni4O2
_chemical_formula_sum              "C84 H60 N16 Ni4 O2"
_cell_length_a       15.07151
_cell_length_b       15.06539
_cell_length_c       14.89256
_cell_angle_alpha    108.64017
_cell_angle_beta     109.87973
_cell_angle_gamma    110.29240000000001

_space_group_name_H-M_alt    "P 1"
_space_group_IT_number       1

loop_
  _space_group_symop_operation_xyz
  'x, y, z'

loop_
  _atom_site_type_symbol
  _atom_site_label
  _atom_site_symmetry_multiplicity
  _atom_site_fract_x
  _atom_site_fract_y
  _atom_site_fract_z
  _atom_site_occupancy
  C   C1        1.0  0.9103100000000002  0.91122  0.7139  1.0000
  C   C2        1.0  0.90882  0.6853  0.4409699999999999  1.0000
  C   C3        1.0  0.6965200000000003  0.79424  0.20225  1.0000
  C   C4        1.0  0.09253000000000003  0.29819  0.49564  1.0000
  C   C5        1.0  0.3034600000000001  0.008349999999999996  0.60084  1.0000
  C   C6        1.0  0.63057  0.70329  0.20181999999999997  1.0000
  C   C7        1.0  0.3670900000000001  0.06785  0.57093  1.0000
  C   C8        1.0  0.0018800000000000277  0.6777200000000001  0.4590099999999999  1.0000
  C   C9        1.0  0.001159999999999994  0.94452  0.17787999999999998  1.0000
  C   C10       1.0  0.47715  0.68211  0.3986199999999999  1.0000
  C   C11       1.0  0.50004  0.78896  0.43011  1.0000
  C   C12       1.0  0.0026000000000000025  0.3015  0.43696  1.0000
  C   C13       1.0  0.5385100000000002  0.86164  0.53974  1.0000
  C   C14       1.0  0.5519  0.8253799999999999  0.61682  1.0000
  C   C15       1.0  0.5300500000000001  0.71876  0.58514  1.0000
  C   C16       1.0  0.25834  0.22151  0.81459  1.0000
  C   C17       1.0  0.49285000000000007  0.64721  0.4761099999999999  1.0000
  C   C18       1.0  0.4834999999999999  0.9929599999999998  0.59348  1.0000
  C   C19       1.0  0.47349  0.08161999999999996  0.59317  1.0000
  C   C20       1.0  0.55297  0.16481  0.5918  1.0000
  C   C21       1.0  0.63575  0.15008  0.58031  1.0000
  C   C22       1.0  0.63548  0.053379999999999976  0.56562  1.0000
  C   C23       1.0  0.28947000000000006  0.3244600000000001  0.82626  1.0000
  C   C24       1.0  0.5582200000000003  0.97372  0.57234  1.0000
  C   C25       1.0  0.56476  0.29943  0.52438  1.0000
  C   C26       1.0  0.5513  0.38627999999999996  0.52271  1.0000
  C   C27       1.0  0.51955  0.4366  0.59174  1.0000
  C   C28       1.0  0.7413700000000002  0.05553999999999999  0.46548  1.0000
  C   C29       1.0  0.50321  0.40156000000000003  0.66389  1.0000
  C   C30       1.0  0.52098  0.31793  0.6693  1.0000
  C   C31       1.0  0.5484400000000003  0.2633799999999999  0.59693  1.0000
  C   C32       1.0  0.81619  0.11945999999999998  0.08313  1.0000
  C   C33       1.0  0.8898599999999999  0.2172  0.18292  1.0000
  C   C34       1.0  0.7120300000000003  0.03356000000000005  0.53821  1.0000
  C   C35       1.0  0.8535000000000003  0.28461  0.22813  1.0000
  C   C36       1.0  0.7422300000000002  0.25291  0.17018  1.0000
  C   C37       1.0  0.66905  0.15543  0.06985  1.0000
  C   C38       1.0  0.70591  0.08865  0.026599999999999995  1.0000
  C   C39       1.0  0.9323000000000002  0.48389999999999994  0.34636  1.0000
  C   C40       1.0  0.2569999999999999  0.31378  0.72253  1.0000
  C   C41       1.0  0.008879999999999985  0.58206  0.44567  1.0000
  C   C42       1.0  0.08985999999999998  0.5872799999999999  0.53394  1.0000
  C   C43       1.0  0.09042000000000004  0.49391  0.52163  1.0000
  C   C44       1.0  0.009699999999999974  0.39465  0.42653  1.0000
  C   C45       1.0  0.6956400000000003  0.70273  0.29361  1.0000
  C   C46       1.0  0.9320199999999998  0.38814  0.33501  1.0000
  C   C47       1.0  0.2818500000000001  0.7342799999999999  0.68324  1.0000
  C   C48       1.0  0.35639000000000004  0.8262399999999999  0.7875099999999999  1.0000
  C   C49       1.0  0.3185900000000001  0.8680699999999999  0.85454  1.0000
  C   C50       1.0  0.20611999999999997  0.81766  0.8175199999999999  1.0000
  C   C51       1.0  0.13122  0.72601  0.71316  1.0000
  C   C52       1.0  0.75054  0.96948  0.56373  1.0000
  C   C53       1.0  0.16862000000000002  0.68455  0.64486  1.0000
  C   C54       1.0  0.36500000000000016  0.52032  0.93713  1.0000
  C   C55       1.0  0.3537099999999999  0.42551999999999995  0.9306199999999999  1.0000
  C   C56       1.0  0.30446  0.09480999999999998  0.50509  1.0000
  C   C57       1.0  0.45909  0.6249  0.03267  1.0000
  C   C58       1.0  0.51139  0.63255  0.13004  1.0000
  C   C59       1.0  0.41007  0.15026  0.10481  1.0000
  C   C60       1.0  0.30898  0.06144999999999999  0.06682  1.0000
  C   C61       1.0  0.21415000000000006  0.06935  0.03598  1.0000
  C   C62       1.0  0.22323000000000007  0.16952  0.0502  1.0000
  C   C63       1.0  0.32493  0.2587  0.08955  1.0000
  C   C64       1.0  0.9098999999999999  0.21033999999999994  0.40736999999999995  1.0000
  C   C65       1.0  0.41779  0.24834  0.11488  1.0000
  C   C66       1.0  0.10561999999999999  0.9545  0.08381  1.0000
  C   C67       1.0  0.09194999999999999  0.78091  0.5239  1.0000
  C   C68       1.0  0.00539000000000002  0.90063  0.07673  1.0000
  C   C69       1.0  0.9100000000000003  0.83081  0.97225  1.0000
  C   C70       1.0  0.9130700000000003  0.84205  0.8835  1.0000
  C   C71       1.0  0.009389999999999978  0.92218  0.8994999999999997  1.0000
  C   C72       1.0  0.10853  0.97671  0.00154  1.0000
  C   C73       1.0  0.8155  0.6743  0.99741  1.0000
  C   C74       1.0  0.7208300000000002  0.59799  0.98609  1.0000
  C   C75       1.0  0.6201900000000001  0.58887  0.9297599999999999  1.0000
  C   C76       1.0  0.09212000000000004  0.9997200000000002  0.80071  1.0000
  C   C77       1.0  0.61303  0.65639  0.885  1.0000
  C   C78       1.0  0.9094599999999999  0.93346  0.18756  1.0000
  C   C79       1.0  0.7069700000000002  0.73367  0.89671  1.0000
  C   C80       1.0  0.8093300000000001  0.74465  0.95445  1.0000
  C   C81       1.0  0.003939999999999938  0.94737  0.81071  1.0000
  C   C82       1.0  0.92748  0.61039  0.97962  1.0000
  C   C83       1.0  0.60622  0.53783  0.28273  1.0000
  C   C84       1.0  0.09259  0.023490000000000004  0.28098  1.0000
  H   H1        1.0  0.82666  0.85341  0.68551  1.0000
  H   H2        1.0  0.44683  0.62624  0.31399  1.0000
  H   H3        1.0  0.4873100000000001  0.81498  0.36925  1.0000
  H   H4        1.0  0.17683  0.35067  0.52061  1.0000
  H   H5        1.0  0.57989  0.87992  0.70129  1.0000
  H   H6        1.0  0.54143  0.69158  0.64504  1.0000
  H   H7        1.0  0.4220200000000001  0.9279600000000001  0.59282  1.0000
  H   H8        1.0  0.6980900000000002  0.21183000000000002  0.57854  1.0000
  H   H9        1.0  0.5847000000000001  0.25848  0.46679  1.0000
  H   H10       1.0  0.56306  0.41294  0.46611  1.0000
  H   H11       1.0  0.50641  0.50192  0.58865  1.0000
  H   H12       1.0  0.3314099999999999  0.14859999999999998  0.4743899999999999  1.0000
  H   H13       1.0  0.47461  0.43778  0.71412  1.0000
  H   H14       1.0  0.50845  0.29253  0.72642  1.0000
  H   H15       1.0  0.64911  0.01318  0.94913  1.0000
  H   H16       1.0  0.27325  0.20078  0.87893  1.0000
  H   H17       1.0  0.8447500000000002  0.06779  0.04941999999999999  1.0000
  H   H18       1.0  0.97532  0.24031999999999995  0.22476999999999997  1.0000
  H   H19       1.0  0.7117800000000002  0.30285  0.20305  1.0000
  H   H20       1.0  0.58363  0.1315  0.025549999999999996  1.0000
  H   H21       1.0  0.8732600000000003  0.4825  0.27848  1.0000
  H   H22       1.0  0.14878000000000002  0.49790000000000006  0.59236  1.0000
  H   H23       1.0  0.17684  0.80454  0.55224  1.0000
  H   H24       1.0  0.31197  0.70266  0.63178  1.0000
  H   H25       1.0  0.44341000000000014  0.86501  0.81631  1.0000
  H   H26       1.0  0.37667000000000006  0.9392  0.93521  1.0000
  H   H27       1.0  0.17652999999999994  0.84919  0.8693499999999998  1.0000
  H   H28       1.0  0.72234  0.10175999999999996  0.42745  1.0000
  H   H29       1.0  0.044309999999999954  0.68781  0.68521  1.0000
  H   H30       1.0  0.31864000000000003  0.5220000000000001  0.8643699999999999  1.0000
  H   H31       1.0  0.4018600000000001  0.42213  0.00117  1.0000
  H   H32       1.0  0.4970000000000001  0.68754  0.01491  1.0000
  H   H33       1.0  0.4686900000000001  0.57336  0.14858  1.0000
  H   H34       1.0  0.82428  0.88222  0.12406  1.0000
  H   H35       1.0  0.49601  0.31612  0.14292  1.0000
  H   H36       1.0  0.48256  0.14329  0.12732  1.0000
  H   H37       1.0  0.30458  0.98668  0.06202  1.0000
  H   H38       1.0  0.15176  0.17831  0.03087  1.0000
  H   H39       1.0  0.33135  0.33537  0.0993  1.0000
  H   H40       1.0  0.2710000000000001  0.3777499999999999  0.70159  1.0000
  H   H41       1.0  0.1820100000000001  0.9966999999999999  0.16028  1.0000
  H   H42       1.0  0.83924  0.79059  0.80345  1.0000
  H   H43       1.0  0.72537  0.54518  0.02038  1.0000
  H   H44       1.0  0.54741  0.528  0.9194299999999999  1.0000
  H   H45       1.0  0.17774000000000006  0.05475  0.30574  1.0000
  H   H46       1.0  0.5345000000000002  0.64869  0.84108  1.0000
  H   H47       1.0  0.7003700000000003  0.7867299999999999  0.86324  1.0000
  H   H48       1.0  0.74485  0.94027  0.61989  1.0000
  H   H49       1.0  0.82545  0.18317999999999998  0.3530499999999999  1.0000
  H   H50       1.0  0.1748300000000001  0.01764000000000001  0.84597  1.0000
  H   H51       1.0  0.9284900000000001  0.6311699999999999  0.9144499999999999  1.0000
  H   H52       1.0  0.8621699999999999  0.52426  0.94195  1.0000
  H   H53       1.0  0.007589999999999997  0.6177499999999999  0.024929999999999997  1.0000
  H   H54       1.0  0.61982  0.50946  0.21222  1.0000
  H   H55       1.0  0.5170200000000003  0.4996  0.25242  1.0000
  H   H56       1.0  0.82524  0.61919  0.39571  1.0000
  H   H57       1.0  0.6385400000000002  0.50721  0.33704  1.0000
  H   H58       1.0  0.66854  0.82871  0.15307  1.0000
  H   H59       1.0  0.33031999999999995  0.9865499999999999  0.66345  1.0000
  H   H60       1.0  0.4754700000000001  0.56452  0.45132  1.0000
  N   N1        1.0  0.94194  0.94458  0.65078  1.0000
  N   N2        1.0  0.20446  0.15025  0.70709  1.0000
  N   N3        1.0  0.7942700000000003  0.0032399999999999786  0.44641999999999993  1.0000
  N   N4        1.0  0.20492  0.20757  0.65077  1.0000
  N   N5        1.0  0.7938100000000002  0.9459200000000001  0.50274  1.0000
  N   N6        1.0  0.94362  0.15258999999999998  0.44641999999999993  1.0000
  N   N7        1.0  0.05511000000000003  0.0009000000000000256  0.7071  1.0000
  N   N8        1.0  0.7950800000000001  0.79243  0.34923  1.0000
  N   N9        1.0  0.20618999999999996  0.05407999999999995  0.49725999999999987  1.0000
  N   N10       1.0  0.05638000000000001  0.84741  0.55358  1.0000
  N   N11       1.0  0.94489  0.9991  0.2929  1.0000
  N   N12       1.0  0.058059999999999994  0.05541999999999997  0.34922  1.0000
  N   N13       1.0  0.9432  0.7910999999999999  0.49725999999999987  1.0000
  N   N14       1.0  0.79554  0.8497499999999999  0.29291  1.0000
  N   N15       1.0  0.20573000000000002  0.99676  0.55358  1.0000
  N   N16       1.0  0.05680000000000002  0.2089  0.50274  1.0000
  Ni  Ni1       1.0  0.86969  0.8696899999999999  0.5  1.0000
  Ni  Ni2       1.0  0.13031  0.13031  0.5  1.0000
  Ni  Ni3       1.0  0.12925  0.99884  0.62917  1.0000
  Ni  Ni4       1.0  0.8707500000000002  0.0011600000000000098  0.37083  1.0000
  O   O1        1.0  0.9146800000000003  0.68277  0.05458  1.0000
  O   O2        1.0  0.65694  0.65204  0.34597  1.0000
