data_image0
_chemical_formula_structural       Ba2C63H68O31P8
_chemical_formula_sum              "Ba2 C63 H68 O31 P8"
_cell_length_a       8.42634
_cell_length_b       12.850350000000002
_cell_length_c       18.860319999999998
_cell_angle_alpha    100.63125000000001
_cell_angle_beta     91.39876
_cell_angle_gamma    99.59748

_space_group_name_H-M_alt    "P 1"
_space_group_IT_number       1

loop_
  _space_group_symop_operation_xyz
  'x, y, z'

loop_
  _atom_site_type_symbol
  _atom_site_label
  _atom_site_symmetry_multiplicity
  _atom_site_fract_x
  _atom_site_fract_y
  _atom_site_fract_z
  _atom_site_occupancy
  Ba  Ba1       1.0  0.85278  0.5483400000000002  0.46507  1.0000
  Ba  Ba2       1.0  0.33706  0.4517500000000001  0.53494  1.0000
  C   C1        1.0  0.57511  0.88431  0.24539000000000002  1.0000
  C   C2        1.0  0.89182  0.39671000000000006  0.08939  1.0000
  C   C3        1.0  0.73028  0.35475  0.06413  1.0000
  C   C4        1.0  0.10905  0.80678  0.2574  1.0000
  C   C5        1.0  0.67163  0.36754000000000003  0.99737  1.0000
  C   C6        1.0  0.7739499999999998  0.41754  0.9519800000000002  1.0000
  C   C7        1.0  0.93714  0.4560700000000001  0.97428  1.0000
  C   C8        1.0  0.7155900000000001  0.42490000000000006  0.8834500000000001  1.0000
  C   C9        1.0  0.82021  0.46167  0.83295  1.0000
  C   C10       1.0  0.9833  0.50539  0.85551  1.0000
  C   C11       1.0  0.04082000000000003  0.5027500000000001  0.9268300000000002  1.0000
  C   C12       1.0  0.61033  0.803  0.29061  1.0000
  C   C13       1.0  0.76733  0.45309000000000005  0.76011  1.0000
  C   C14       1.0  0.8744600000000001  0.49031  0.71137  1.0000
  C   C15       1.0  0.03130999999999999  0.54332  0.73335  1.0000
  C   C16       1.0  0.004120000000000078  0.8106100000000003  0.18977  1.0000
  C   C17       1.0  0.08816000000000003  0.55167  0.80717  1.0000
  C   C18       1.0  0.15862000000000007  0.48603000000000013  0.06698  1.0000
  C   C19       1.0  0.21607  0.4807900000000001  0.13806  1.0000
  C   C20       1.0  0.10784  0.43753  0.18714  1.0000
  C   C21       1.0  0.9501099999999999  0.38767000000000007  0.15875  1.0000
  C   C22       1.0  0.24539  0.6027599999999999  0.8347  1.0000
  C   C23       1.0  0.55938  0.24204000000000006  0.30382  1.0000
  C   C24       1.0  0.30524  0.5941  0.9038  1.0000
  C   C25       1.0  0.20281  0.54331  0.94999  1.0000
  C   C26       1.0  0.26217000000000007  0.5342100000000001  0.01969  1.0000
  C   C27       1.0  0.46736000000000005  0.63377  0.92716  1.0000
  C   C28       1.0  0.28921  0.7963600000000001  0.64465  1.0000
  C   C29       1.0  0.52692  0.6227  0.9950099999999998  1.0000
  C   C30       1.0  0.42514  0.57372  0.04195  1.0000
  C   C31       1.0  0.37923999999999997  0.52553  0.16121  1.0000
  C   C32       1.0  0.48326  0.56648  0.11125  1.0000
  C   C33       1.0  0.43072  0.53315  0.23461  1.0000
  C   C34       1.0  0.5586  0.18167  0.22486  1.0000
  C   C35       1.0  0.32132  0.49634  0.2828  1.0000
  C   C36       1.0  0.16111  0.45019000000000003  0.26269  1.0000
  C   C37       1.0  0.78016  0.17685  0.51043  1.0000
  C   C38       1.0  0.4353000000000001  0.8037500000000002  0.46040000000000003  1.0000
  C   C39       1.0  0.40432  0.9812300000000003  0.44177000000000005  1.0000
  C   C40       1.0  0.40131  0.88836  0.69321  1.0000
  C   C41       1.0  0.34315999999999997  0.8721599999999999  0.43276999999999993  1.0000
  C   C42       1.0  0.57834  0.8464800000000001  0.50524  1.0000
  C   C43       1.0  0.64206  0.95939  0.51197  1.0000
  C   C44       1.0  0.55495  0.02616000000000003  0.47841000000000006  1.0000
  C   C45       1.0  0.06706000000000001  0.24061  0.7303  1.0000
  C   C46       1.0  0.62101  0.13671  0.48170999999999997  1.0000
  C   C47       1.0  0.86248  0.11433  0.54736  1.0000
  C   C48       1.0  0.79174  0.007760000000000002  0.5496  1.0000
  C   C49       1.0  0.96937  0.1776  0.33824  1.0000
  C   C50       1.0  0.96961  0.07429  0.28408  1.0000
  C   C51       1.0  0.74546  0.71272  0.68098  1.0000
  C   C52       1.0  0.75747  0.74702  0.76342  1.0000
  C   C53       1.0  0.13488  0.07264  0.25345  1.0000
  C   C54       1.0  0.86986  0.8546000000000001  0.78896  1.0000
  C   C55       1.0  0.50665  0.8312500000000002  0.16907  1.0000
  C   C56       1.0  0.09137000000000002  0.21988000000000005  0.80633  1.0000
  C   C57       1.0  0.14241  0.69312  0.2489  1.0000
  C   C58       1.0  0.86623  0.28477  0.49796  1.0000
  C   C59       1.0  0.37348  0.68529  0.44243  1.0000
  C   C60       1.0  0.19073000000000007  0.8425300000000002  0.5937  1.0000
  C   C61       1.0  0.5496800000000001  0.19274000000000002  0.72812  1.0000
  C   C62       1.0  0.59791  0.14186000000000007  0.79123  1.0000
  C   C63       1.0  0.9958500000000001  0.44725  0.04392  1.0000
  H   H1        1.0  0.68837  0.84588  0.33907  1.0000
  H   H2        1.0  0.49093000000000003  0.933  0.27403  1.0000
  H   H3        1.0  0.80273  0.68488  0.78806  1.0000
  H   H4        1.0  0.63554  0.75322  0.78297  1.0000
  H   H5        1.0  0.49465  0.7672399999999999  0.30953  1.0000
  H   H6        1.0  0.68537  0.26781  0.32453  1.0000
  H   H7        1.0  0.5271900000000002  0.23366000000000003  0.18742  1.0000
  H   H8        1.0  0.6796  0.16199  0.21358  1.0000
  H   H9        1.0  0.68695  0.93926  0.24051  1.0000
  H   H10       1.0  0.15533  0.31312  0.72519  1.0000
  H   H11       1.0  0.94248  0.25604  0.72274  1.0000
  H   H12       1.0  0.46482999999999997  0.8577199999999999  0.73506  1.0000
  H   H13       1.0  0.21959  0.21754  0.81838  1.0000
  H   H14       1.0  0.05550999999999999  0.28528  0.8464  1.0000
  H   H15       1.0  0.018630000000000018  0.14157000000000006  0.81159  1.0000
  H   H16       1.0  0.6578  0.21403000000000003  0.69744  1.0000
  H   H17       1.0  0.46339  0.1317  0.69019  1.0000
  H   H18       1.0  0.62401  0.06021000000000001  0.76938  1.0000
  H   H19       1.0  0.6457200000000001  0.31204  0.0952  1.0000
  H   H20       1.0  0.54626  0.33575  0.9805  1.0000
  H   H21       1.0  0.83147  0.48344000000000004  0.6559  1.0000
  H   H22       1.0  0.58883  0.39661  0.86923  1.0000
  H   H23       1.0  0.49139  0.92955  0.66097  1.0000
  H   H24       1.0  0.32488  0.6468200000000002  0.80225  1.0000
  H   H25       1.0  0.5491  0.67213  0.8924800000000002  1.0000
  H   H26       1.0  0.65282  0.65358  0.01112  1.0000
  H   H27       1.0  0.6093  0.59684  0.12657  1.0000
  H   H28       1.0  0.22386  0.86358  0.2592  1.0000
  H   H29       1.0  0.36428  0.4998699999999999  0.33764  1.0000
  H   H30       1.0  0.33061  0.030059999999999996  0.41989  1.0000
  H   H31       1.0  0.85806  0.96288  0.57902  1.0000
  H   H32       1.0  0.91728  0.73405  0.17269  1.0000
  H   H33       1.0  0.93088  0.8749900000000002  0.20103  1.0000
  H   H34       1.0  0.32953000000000005  0.9472500000000003  0.72047  1.0000
  H   H35       1.0  0.36282000000000003  0.7420300000000001  0.61343  1.0000
  H   H36       1.0  0.06692  0.13142000000000004  0.41701  1.0000
  H   H37       1.0  0.12629  0.017320000000000012  0.20083  1.0000
  H   H38       1.0  0.1885  0.15257  0.24266  1.0000
  H   H39       1.0  0.21541  0.04812999999999999  0.2923  1.0000
  H   H40       1.0  0.9925999999999999  0.8504  0.76999  1.0000
  H   H41       1.0  0.82311  0.9200400000000001  0.76851  1.0000
  H   H42       1.0  0.87785  0.8742600000000003  0.84893  1.0000
  H   H43       1.0  0.6009  0.79655  0.13724  1.0000
  H   H44       1.0  0.4027  0.76715  0.1708  1.0000
  H   H45       1.0  0.85023  0.17070000000000002  0.36155  1.0000
  H   H46       1.0  0.46637000000000006  0.8910200000000003  0.14063  1.0000
  H   H47       1.0  0.37149  0.30649  0.29594  1.0000
  H   H48       1.0  0.42786  0.06587  0.15809  1.0000
  H   H49       1.0  0.028760000000000036  0.8276200000000001  0.09079  1.0000
  H   H50       1.0  0.76419  0.16845000000000004  0.86772  1.0000
  H   H51       1.0  0.24885  0.69162  0.28248  1.0000
  H   H52       1.0  0.038120000000000064  0.6392400000000003  0.26404  1.0000
  H   H53       1.0  0.16725000000000004  0.6644700000000001  0.19226  1.0000
  H   H54       1.0  0.39088  0.07383  0.81883  1.0000
  H   H55       1.0  0.7530800000000002  0.35248  0.20177  1.0000
  H   H56       1.0  0.8824  0.07059  0.23839  1.0000
  H   H57       1.0  0.83492  0.30242  0.44542999999999994  1.0000
  H   H58       1.0  0.84978  0.35057000000000005  0.54285  1.0000
  H   H59       1.0  0.99285  0.28528  0.48805999999999994  1.0000
  H   H60       1.0  0.45789  0.6319000000000001  0.4368  1.0000
  H   H61       1.0  0.28633000000000003  0.6593500000000001  0.4815  1.0000
  H   H62       1.0  0.33069  0.66514  0.38572  1.0000
  H   H63       1.0  0.26738000000000006  0.9052200000000001  0.57057  1.0000
  H   H64       1.0  0.13536999999999996  0.77602  0.54994  1.0000
  H   H65       1.0  0.09497  0.87998  0.62269  1.0000
  H   H66       1.0  0.93312  0.004520000000000009  0.31042  1.0000
  H   H67       1.0  0.8651300000000002  0.69998  0.66186  1.0000
  H   H68       1.0  0.65804  0.63603  0.66683  1.0000
  O   O1        1.0  0.8730900000000001  0.42589  0.32514  1.0000
  O   O2        1.0  0.19822  0.12419  0.55134  1.0000
  O   O3        1.0  0.09213000000000002  0.15023000000000006  0.68013  1.0000
  O   O4        1.0  0.12242000000000001  0.43437  0.41438  1.0000
  O   O5        1.0  0.5783700000000002  0.6338000000000001  0.53638  1.0000
  O   O6        1.0  0.34151  0.23184999999999997  0.4655099999999999  1.0000
  O   O7        1.0  0.47626  0.17513000000000006  0.34619  1.0000
  O   O8        1.0  0.44844  0.47641000000000006  0.75468  1.0000
  O   O9        1.0  0.47031  0.27914  0.75437  1.0000
  O   O10       1.0  0.6595  0.6271000000000002  0.36881  1.0000
  O   O11       1.0  0.76663  0.54061  0.24435  1.0000
  O   O12       1.0  0.69295  0.7932100000000002  0.65023  1.0000
  O   O13       1.0  0.99261  0.2577499999999999  0.29735  1.0000
  O   O14       1.0  0.69062  0.72703  0.24965  1.0000
  O   O15       1.0  0.8482  0.76819  0.53453  1.0000
  O   O16       1.0  0.08115999999999998  0.68595  0.40481  1.0000
  O   O17       1.0  0.023780000000000023  0.8757800000000001  0.45899999999999996  1.0000
  O   O18       1.0  0.09414  0.19081  0.38988  1.0000
  O   O19       1.0  0.48871000000000003  0.33314  0.30613  1.0000
  O   O20       1.0  0.44958  0.08504  0.21128  1.0000
  O   O21       1.0  0.10237000000000006  0.8263400000000001  0.13239  1.0000
  O   O22       1.0  0.73791  0.20422000000000007  0.82763  1.0000
  O   O23       1.0  0.027249999999999996  0.83749  0.32033  1.0000
  O   O24       1.0  0.47495000000000004  0.13592  0.84011  1.0000
  O   O25       1.0  0.85507  0.32443  0.1969  1.0000
  O   O26       1.0  0.31661  0.5741400000000002  0.6749  1.0000
  O   O27       1.0  0.06729000000000006  0.5657200000000002  0.58563  1.0000
  O   O28       1.0  0.53021  0.37299000000000004  0.6312  1.0000
  O   O29       1.0  0.1834  0.74566  0.68879  1.0000
  O   O30       1.0  0.61134  0.36629  0.46363000000000004  1.0000
  O   O31       1.0  0.10855  0.31414  0.5952  1.0000
  P   P1        1.0  0.04103999999999999  0.39477  0.33633  1.0000
  P   P2        1.0  0.67288  0.75403  0.5561  1.0000
  P   P3        1.0  0.12574000000000005  0.82227  0.40072  1.0000
  P   P4        1.0  0.14867  0.60532  0.66368  1.0000
  P   P5        1.0  0.06467  0.17449  0.59265  1.0000
  P   P6        1.0  0.63393  0.60252  0.27447  1.0000
  P   P7        1.0  0.51635  0.22836  0.43861  1.0000
  P   P8        1.0  0.5578200000000002  0.3958700000000001  0.72497  1.0000
