data_image0
_chemical_formula_structural       Zn16O52C24H8C88NO2NO2NO2NO2NO2NO2NO2NO2SO3HSO3HSO3HSO3HSO3HSO3HSO3HSO3HSO3HSO3HSO3HSO3HSO3HSO3HSO3HSO3HSO3HSO3HSO3HSO3HSO3HSO3HSO3HSO3HSO3HSO3HSO3HSO3HSO3HSO3HSO3HSO3HNO2NO2NO2NO2NO2NO2NO2NO2
_chemical_formula_sum              "Zn16 O180 C112 H40 N16 S32"
_cell_length_a       18.36929
_cell_length_b       26.083740000000002
_cell_length_c       18.44728
_cell_angle_alpha    90.01638000000001
_cell_angle_beta     89.99779
_cell_angle_gamma    90.02511

_space_group_name_H-M_alt    "P 1"
_space_group_IT_number       1

loop_
  _space_group_symop_operation_xyz
  'x, y, z'

loop_
  _atom_site_type_symbol
  _atom_site_label
  _atom_site_symmetry_multiplicity
  _atom_site_fract_x
  _atom_site_fract_y
  _atom_site_fract_z
  _atom_site_occupancy
  Zn  Zn1       1.0  0.5  0.70665  0.58681  1.0000
  Zn  Zn2       1.0  0.5  0.29335  0.41319  1.0000
  Zn  Zn3       1.0  0.5  0.70665  0.41319  1.0000
  Zn  Zn4       1.0  0.5  0.29335  0.58681  1.0000
  Zn  Zn5       1.0  0.0  0.20664999999999997  0.08681  1.0000
  Zn  Zn6       1.0  0.0  0.79335  0.9131899999999998  1.0000
  Zn  Zn7       1.0  0.0  0.20664999999999997  0.9131899999999998  1.0000
  Zn  Zn8       1.0  0.0  0.79335  0.08681  1.0000
  Zn  Zn9       1.0  0.58671  0.7934199999999999  0.5  1.0000
  Zn  Zn10      1.0  0.41329  0.20658  0.5  1.0000
  Zn  Zn11      1.0  0.41329  0.7934199999999999  0.5  1.0000
  Zn  Zn12      1.0  0.58671  0.20658  0.5  1.0000
  Zn  Zn13      1.0  0.08671  0.29342  0.0  1.0000
  Zn  Zn14      1.0  0.9132899999999999  0.70658  0.0  1.0000
  Zn  Zn15      1.0  0.9132899999999999  0.29342  0.0  1.0000
  Zn  Zn16      1.0  0.08671  0.70658  0.0  1.0000
  O   O1        1.0  0.5  0.75004  0.5  1.0000
  O   O2        1.0  0.5  0.24995999999999996  0.5  1.0000
  O   O3        1.0  0.0  0.25004  0.0  1.0000
  O   O4        1.0  0.0  0.74996  0.0  1.0000
  O   O5        1.0  0.58542  0.7197  0.35388  1.0000
  O   O6        1.0  0.4145799999999999  0.2803  0.64612  1.0000
  O   O7        1.0  0.4145799999999999  0.7197  0.64612  1.0000
  O   O8        1.0  0.58542  0.2803  0.35388  1.0000
  O   O9        1.0  0.58542  0.2803  0.64612  1.0000
  O   O10       1.0  0.4145799999999999  0.7197  0.35388  1.0000
  O   O11       1.0  0.4145799999999999  0.2803  0.35388  1.0000
  O   O12       1.0  0.58542  0.7197  0.64612  1.0000
  O   O13       1.0  0.08542  0.2197  0.85388  1.0000
  O   O14       1.0  0.91458  0.7803  0.14612  1.0000
  O   O15       1.0  0.91458  0.2197  0.14612  1.0000
  O   O16       1.0  0.08542  0.7803  0.85388  1.0000
  O   O17       1.0  0.08542  0.7803  0.14612  1.0000
  O   O18       1.0  0.91458  0.2197  0.85388  1.0000
  O   O19       1.0  0.91458  0.7803  0.85388  1.0000
  O   O20       1.0  0.08542  0.2197  0.14612  1.0000
  O   O21       1.0  0.64612  0.78039  0.58551  1.0000
  O   O22       1.0  0.35388  0.21961  0.41449  1.0000
  O   O23       1.0  0.35388  0.78039  0.41449  1.0000
  O   O24       1.0  0.64612  0.21961  0.58551  1.0000
  O   O25       1.0  0.64612  0.21961  0.41449  1.0000
  O   O26       1.0  0.35388  0.78039  0.58551  1.0000
  O   O27       1.0  0.35388  0.21961  0.58551  1.0000
  O   O28       1.0  0.64612  0.78039  0.41449  1.0000
  O   O29       1.0  0.14612  0.28039  0.08551  1.0000
  O   O30       1.0  0.85388  0.71961  0.9144900000000001  1.0000
  O   O31       1.0  0.85388  0.28039  0.9144900000000001  1.0000
  O   O32       1.0  0.14612  0.71961  0.08551  1.0000
  O   O33       1.0  0.14612  0.71961  0.9144900000000001  1.0000
  O   O34       1.0  0.85388  0.28039  0.08551  1.0000
  O   O35       1.0  0.85388  0.71961  0.08551  1.0000
  O   O36       1.0  0.14612  0.28039  0.9144900000000001  1.0000
  O   O37       1.0  0.56066  0.86584  0.5  1.0000
  O   O38       1.0  0.43933999999999995  0.13416  0.5  1.0000
  O   O39       1.0  0.43933999999999995  0.86584  0.5  1.0000
  O   O40       1.0  0.56066  0.13416  0.5  1.0000
  O   O41       1.0  0.06065999999999999  0.36584  0.0  1.0000
  O   O42       1.0  0.9393399999999998  0.63416  0.0  1.0000
  O   O43       1.0  0.9393399999999998  0.36584  0.0  1.0000
  O   O44       1.0  0.06065999999999999  0.63416  0.0  1.0000
  O   O45       1.0  0.5  0.63424  0.43931  1.0000
  O   O46       1.0  0.5  0.36576  0.56069  1.0000
  O   O47       1.0  0.5  0.63424  0.56069  1.0000
  O   O48       1.0  0.5  0.36576  0.43931  1.0000
  O   O49       1.0  0.0  0.13424  0.9393100000000001  1.0000
  O   O50       1.0  0.0  0.86576  0.06069  1.0000
  O   O51       1.0  0.0  0.13424  0.06069  1.0000
  O   O52       1.0  0.0  0.86576  0.9393100000000001  1.0000
  C   C1        1.0  0.6404  0.7497099999999999  0.36015  1.0000
  C   C2        1.0  0.36  0.24974  0.64022  1.0000
  C   C3        1.0  0.35951  0.74973  0.63976  1.0000
  C   C4        1.0  0.64005  0.2498  0.35983  1.0000
  C   C5        1.0  0.6401  0.25004  0.64001  1.0000
  C   C6        1.0  0.36006999999999995  0.7506199999999998  0.35979  1.0000
  C   C7        1.0  0.35981  0.25007  0.36004  1.0000
  C   C8        1.0  0.63994  0.75066  0.64019  1.0000
  C   C9        1.0  0.1402  0.24989  0.86009  1.0000
  C   C10       1.0  0.86007  0.74933  0.14022  1.0000
  C   C11       1.0  0.85983  0.24987  0.13994  1.0000
  C   C12       1.0  0.13988  0.74933  0.85968  1.0000
  C   C13       1.0  0.1404  0.7502  0.13986  1.0000
  C   C14       1.0  0.86  0.25024  0.85984  1.0000
  C   C15       1.0  0.8595099999999999  0.75034  0.86022  1.0000
  C   C16       1.0  0.13999  0.25022  0.1402  1.0000
  C   C17       1.0  0.50005  0.89005  0.49970999999999993  1.0000
  C   C18       1.0  0.49999  0.1098  0.49953  1.0000
  C   C19       1.0  2.000000000000004e-05  0.39022  0.00027  1.0000
  C   C20       1.0  9.999999999999996e-06  0.60995  0.00026  1.0000
  C   C21       1.0  0.49884999999999996  0.60971  0.50007  1.0000
  C   C22       1.0  0.49963  0.38974  0.4998699999999999  1.0000
  C   C23       1.0  0.00025  0.11024999999999999  0.99985  1.0000
  C   C24       1.0  0.0009  0.89028  7e-05  1.0000
  H   H1        1.0  0.45285999999999993  0.53345  0.74713  1.0000
  H   H2        1.0  0.60038  0.46227  0.27122  1.0000
  H   H3        1.0  0.51725  0.53417  0.24971000000000002  1.0000
  H   H4        1.0  0.3742599999999999  0.46058999999999994  0.71852  1.0000
  H   H5        1.0  0.11651  0.0396  0.22314999999999996  1.0000
  H   H6        1.0  0.9897899999999998  0.96554  0.74915  1.0000
  H   H7        1.0  0.9063500000000001  0.03771  0.7679  1.0000
  H   H8        1.0  0.03647  0.96694  0.24893999999999997  1.0000
  C   C25       1.0  0.48883999999999994  0.54352  0.36302  1.0000
  C   C26       1.0  0.41635  0.4513  0.60962  1.0000
  C   C27       1.0  0.49334  0.54229  0.63729  1.0000
  C   C28       1.0  0.5704299999999999  0.4537  0.38425  1.0000
  C   C29       1.0  0.93261  0.046299999999999994  0.88196  1.0000
  C   C30       1.0  0.00117  0.95757  0.13738  1.0000
  C   C31       1.0  0.07948  0.04831  0.11224000000000002  1.0000
  C   C32       1.0  0.01463  0.95635  0.86337  1.0000
  C   C33       1.0  0.52438  0.51996  0.30437  1.0000
  C   C34       1.0  0.40958  0.47591999999999995  0.67689  1.0000
  C   C35       1.0  0.45149999999999996  0.51911  0.6921  1.0000
  C   C36       1.0  0.56894  0.47745  0.31595  1.0000
  C   C37       1.0  0.9361899999999999  0.0225  0.81373  1.0000
  C   C38       1.0  0.04010999999999999  0.98115  0.19393  1.0000
  C   C39       1.0  0.08288  0.02419  0.18016  1.0000
  C   C40       1.0  0.9810399999999999  0.9798799999999999  0.80359  1.0000
  C   C41       1.0  0.52535  0.47382  0.43996999999999997  1.0000
  C   C42       1.0  0.48551999999999995  0.52404  0.56525  1.0000
  C   C43       1.0  0.4645599999999999  0.47269  0.55734  1.0000
  C   C44       1.0  0.50229  0.52475  0.43398  1.0000
  C   C45       1.0  0.9989399999999999  0.97517  0.93384  1.0000
  C   C46       1.0  0.03287  0.02715  0.05841  1.0000
  C   C47       1.0  0.0114  0.97589  0.06566  1.0000
  C   C48       1.0  0.97577  0.02615  0.9391399999999999  1.0000
  C   C49       1.0  0.49702  0.44557  0.49925  1.0000
  C   C50       1.0  0.49561999999999995  0.55292  0.50003  1.0000
  C   C51       1.0  0.0036  0.94706  8e-05  1.0000
  C   C52       1.0  0.00248  0.05434  0.99926  1.0000
  C   C53       1.0  0.24382  0.78382  0.69422  1.0000
  C   C54       1.0  0.76046  0.21967  0.31157  1.0000
  C   C55       1.0  0.75605  0.7833699999999999  0.30566  1.0000
  C   C56       1.0  0.23965  0.21957  0.68864  1.0000
  C   C57       1.0  0.24780999999999997  0.21281  0.30369  1.0000
  C   C58       1.0  0.76154  0.7806299999999998  0.68768  1.0000
  C   C59       1.0  0.75211  0.21296  0.69646  1.0000
  C   C60       1.0  0.23875  0.78071  0.31204  1.0000
  C   C61       1.0  0.74884  0.28758  0.19714  1.0000
  C   C62       1.0  0.26008  0.71799  0.8105  1.0000
  C   C63       1.0  0.25164  0.28743  0.80322  1.0000
  C   C64       1.0  0.73888  0.71871  0.18807  1.0000
  C   C65       1.0  0.74243  0.71777  0.8071  1.0000
  C   C66       1.0  0.26077999999999996  0.27962  0.18799  1.0000
  C   C67       1.0  0.25674  0.71664  0.19379  1.0000
  C   C68       1.0  0.73891  0.27962  0.81232  1.0000
  C   C69       1.0  0.68725  0.27851  0.23908000000000001  1.0000
  C   C70       1.0  0.3021  0.70951  0.74868  1.0000
  C   C71       1.0  0.31316  0.27828  0.76116  1.0000
  C   C72       1.0  0.69631  0.71002  0.2496  1.0000
  C   C73       1.0  0.68251  0.72899  0.76413  1.0000
  C   C74       1.0  0.3029  0.28872  0.24947  1.0000
  C   C75       1.0  0.31714  0.7280999999999999  0.23619999999999997  1.0000
  C   C76       1.0  0.69673  0.2887  0.75082  1.0000
  C   C77       1.0  0.1831  0.77265  0.7363  1.0000
  C   C78       1.0  0.80242  0.21073  0.24989  1.0000
  C   C79       1.0  0.81659  0.77212  0.26356  1.0000
  C   C80       1.0  0.19767  0.21068  0.7503  1.0000
  C   C81       1.0  0.18644  0.22201999999999997  0.26146  1.0000
  C   C82       1.0  0.8041699999999999  0.78956  0.74912  1.0000
  C   C83       1.0  0.81353  0.22249  0.7385  1.0000
  C   C84       1.0  0.19624999999999998  0.78943  0.25054  1.0000
  C   C85       1.0  0.6961399999999999  0.24929  0.30331  1.0000
  C   C86       1.0  0.30176  0.7480099999999998  0.69454  1.0000
  C   C87       1.0  0.30406  0.24914  0.69686  1.0000
  C   C88       1.0  0.69764  0.74795  0.30484  1.0000
  C   C89       1.0  0.6953  0.75327  0.69723  1.0000
  C   C90       1.0  0.30322  0.25056  0.30416  1.0000
  C   C91       1.0  0.30474  0.75305  0.30275  1.0000
  C   C92       1.0  0.69646  0.25052  0.6961  1.0000
  C   C93       1.0  0.19489  0.7467  0.80225  1.0000
  C   C94       1.0  0.8033999999999999  0.24934999999999993  0.19592  1.0000
  C   C95       1.0  0.80471  0.7467  0.19728  1.0000
  C   C96       1.0  0.19678  0.24933999999999995  0.80426  1.0000
  C   C97       1.0  0.19594  0.25067  0.19679  1.0000
  C   C98       1.0  0.80193  0.7523  0.8052  1.0000
  C   C99       1.0  0.8039  0.25081  0.80339  1.0000
  C   C100      1.0  0.19781  0.75173  0.19505  1.0000
  C   C101      1.0  0.4347  0.97298  0.48617  1.0000
  C   C102      1.0  0.56647  0.02634999999999999  0.50482  1.0000
  C   C103      1.0  0.56585  0.97318  0.5097  1.0000
  C   C104      1.0  0.43386  0.026189999999999998  0.49057  1.0000
  C   C105      1.0  0.93436  0.47379  0.01278  1.0000
  C   C106      1.0  0.06511999999999998  0.52699  0.98667  1.0000
  C   C107      1.0  0.06593  0.47380999999999995  0.9902199999999999  1.0000
  C   C108      1.0  0.93526  0.52702  0.01634  1.0000
  C   C109      1.0  0.50005  0.05353999999999999  0.49837  1.0000
  C   C110      1.0  0.5002  0.94607  0.49865000000000004  1.0000
  C   C111      1.0  0.00011  0.55394  0.00103  1.0000
  C   C112      1.0  6.999999999999997e-05  0.4465199999999999  0.00102  1.0000
  N   N1        1.0  0.42956  0.5781  0.34878  1.0000
  O   O53       1.0  0.37485999999999997  0.58097  0.39351  1.0000
  O   O54       1.0  0.42528  0.60178  0.287  1.0000
  N   N2        1.0  0.3682  0.40946999999999995  0.59217  1.0000
  O   O55       1.0  0.34562  0.40314  0.52589  1.0000
  O   O56       1.0  0.33743  0.38302  0.64352  1.0000
  N   N3        1.0  0.5548  0.57334  0.6578  1.0000
  O   O57       1.0  0.61104  0.5767  0.6151  1.0000
  O   O58       1.0  0.56187  0.58848  0.72452  1.0000
  N   N4        1.0  0.6237699999999999  0.41453999999999996  0.39895  1.0000
  O   O59       1.0  0.6507  0.40964  0.46384  1.0000
  O   O60       1.0  0.65452  0.38974999999999993  0.34604  1.0000
  N   N5        1.0  0.8789999999999999  0.08557  0.8949699999999999  1.0000
  O   O61       1.0  0.84982  0.09033  0.95891  1.0000
  O   O62       1.0  0.85027  0.11053  0.84113  1.0000
  N   N6        1.0  0.9406199999999999  0.92502  0.15522  1.0000
  O   O63       1.0  0.88441  0.92268  0.11237000000000001  1.0000
  O   O64       1.0  0.93548  0.90509  0.21952000000000002  1.0000
  N   N7        1.0  0.12955999999999998  0.08923999999999997  0.09585  1.0000
  O   O65       1.0  0.15341  0.09538  0.02997  1.0000
  O   O66       1.0  0.16034999999999996  0.11505  0.14782  1.0000
  N   N8        1.0  0.0741  0.9214799999999999  0.85101  1.0000
  O   O67       1.0  0.12761  0.91859  0.89713  1.0000
  O   O68       1.0  0.07904  0.89667  0.79017  1.0000
  S   S1        1.0  0.24753  0.84476  0.65147  1.0000
  O   O69       1.0  0.22553999999999996  0.83963  0.57348  1.0000
  O   O70       1.0  0.19642  0.88124  0.68865  1.0000
  O   O71       1.0  0.33248  0.8687299999999998  0.65674  1.0000
  H   H9        1.0  0.32764  0.90549  0.64409  1.0000
  S   S2        1.0  0.79682  0.20142999999999997  0.39747  1.0000
  O   O72       1.0  0.7619899999999998  0.15232  0.4219  1.0000
  O   O73       1.0  0.8776899999999999  0.19352  0.39261  1.0000
  O   O74       1.0  0.78059  0.24727  0.45959999999999995  1.0000
  H   H10       1.0  0.8014999999999999  0.27895  0.4385200000000001  1.0000
  S   S3        1.0  0.75235  0.8446899999999999  0.34726  1.0000
  O   O75       1.0  0.7742  0.84035  0.42537  1.0000
  O   O76       1.0  0.80366  0.8807  0.30942  1.0000
  O   O77       1.0  0.66737  0.8685  0.34139  1.0000
  H   H11       1.0  0.67303  0.90624  0.34486  1.0000
  S   S4        1.0  0.20327  0.20122  0.60276  1.0000
  O   O78       1.0  0.23824  0.15217  0.57829  1.0000
  O   O79       1.0  0.12243  0.19316  0.60767  1.0000
  O   O80       1.0  0.21936  0.24707999999999997  0.54064  1.0000
  H   H12       1.0  0.19907  0.27884  0.56208  1.0000
  S   S5        1.0  0.25938  0.15068  0.34206  1.0000
  O   O81       1.0  0.24071999999999996  0.1518  0.42129  1.0000
  O   O82       1.0  0.21125  0.1121  0.30511  1.0000
  O   O83       1.0  0.34656  0.13217  0.33211  1.0000
  H   H13       1.0  0.35279  0.12676  0.27929  1.0000
  S   S6        1.0  0.7972  0.7981  0.60123  1.0000
  O   O84       1.0  0.7622999999999999  0.8471999999999997  0.57676  1.0000
  O   O85       1.0  0.87821  0.80575  0.60496  1.0000
  O   O86       1.0  0.7797599999999999  0.75189  0.53996  1.0000
  H   H14       1.0  0.79846  0.71995  0.56224  1.0000
  S   S7        1.0  0.74153  0.15102  0.65717  1.0000
  O   O87       1.0  0.7609999999999999  0.15257  0.57815  1.0000
  O   O88       1.0  0.79018  0.11292999999999999  0.69444  1.0000
  O   O89       1.0  0.65426  0.13208  0.66617  1.0000
  H   H15       1.0  0.65609  0.09917  0.69345  1.0000
  S   S8        1.0  0.20333999999999994  0.79919  0.39818  1.0000
  O   O90       1.0  0.23923999999999998  0.8481  0.42207  1.0000
  O   O91       1.0  0.12250999999999998  0.8076399999999999  0.39422  1.0000
  O   O92       1.0  0.21968999999999997  0.75318  0.46002  1.0000
  H   H16       1.0  0.19559  0.72213  0.4405200000000001  1.0000
  S   S9        1.0  0.76197  0.34995999999999994  0.16031  1.0000
  O   O93       1.0  0.74288  0.35008  0.08115  1.0000
  O   O94       1.0  0.71501  0.38861  0.19852  1.0000
  O   O95       1.0  0.8497699999999998  0.36707  0.17039  1.0000
  H   H17       1.0  0.85516  0.3752  0.22258  1.0000
  S   S10       1.0  0.29593  0.69851  0.89587  1.0000
  O   O96       1.0  0.25881  0.65008  0.91985  1.0000
  O   O97       1.0  0.37639999999999996  0.68876  0.89078  1.0000
  O   O98       1.0  0.28185999999999994  0.7446299999999999  0.95813  1.0000
  H   H18       1.0  0.30701  0.77526  0.93866  1.0000
  S   S11       1.0  0.23934999999999998  0.34968  0.8409  1.0000
  O   O99       1.0  0.25857  0.34936  0.92001  1.0000
  O   O100      1.0  0.28690999999999994  0.38824999999999993  0.80312  1.0000
  O   O101      1.0  0.15173  0.36735  0.83132  1.0000
  H   H19       1.0  0.14998999999999998  0.38782  0.78612  1.0000
  S   S12       1.0  0.70356  0.70024  0.10197  1.0000
  O   O102      1.0  0.73966  0.65142  0.0781  1.0000
  O   O103      1.0  0.62279  0.6916  0.10582  1.0000
  O   O104      1.0  0.7198  0.7463199999999999  0.04025  1.0000
  H   H20       1.0  0.69777  0.77773  0.06095999999999999  1.0000
  S   S13       1.0  0.74492  0.65668  0.84961  1.0000
  O   O105      1.0  0.7266099999999999  0.66206  0.92847  1.0000
  O   O106      1.0  0.69067  0.62137  0.81457  1.0000
  O   O107      1.0  0.82855  0.63107  0.84078  1.0000
  H   H21       1.0  0.82432  0.59586  0.86046  1.0000
  S   S14       1.0  0.29751  0.29659  0.10169  1.0000
  O   O108      1.0  0.2637  0.34579  0.07624  1.0000
  O   O109      1.0  0.37856  0.30372  0.10631  1.0000
  O   O110      1.0  0.28013  0.25027  0.04056  1.0000
  H   H22       1.0  0.29955  0.21848  0.06264  1.0000
  S   S15       1.0  0.25602  0.65671  0.14782  1.0000
  O   O111      1.0  0.27898  0.6644  0.07061  1.0000
  O   O112      1.0  0.30825  0.62015  0.18313  1.0000
  O   O113      1.0  0.1725  0.63025  0.14971  1.0000
  H   H23       1.0  0.16634  0.6177299999999999  0.20006  1.0000
  S   S16       1.0  0.7026099999999998  0.29694  0.8986800000000001  1.0000
  O   O114      1.0  0.73679  0.34614  0.92374  1.0000
  O   O115      1.0  0.62162  0.30426  0.89429  1.0000
  O   O116      1.0  0.71993  0.25079  0.9600299999999999  1.0000
  H   H24       1.0  0.69976  0.21905  0.9384400000000002  1.0000
  S   S17       1.0  0.60111  0.29498  0.20123  1.0000
  O   O117      1.0  0.54586  0.25416  0.21817999999999999  1.0000
  O   O118      1.0  0.5759  0.34538  0.23155999999999996  1.0000
  O   O119      1.0  0.60851  0.29992  0.11057000000000002  1.0000
  H   H25       1.0  0.56325  0.31721  0.09468  1.0000
  S   S18       1.0  0.33897  0.6470899999999999  0.73432  1.0000
  O   O120      1.0  0.33189  0.63224  0.65587  1.0000
  O   O121      1.0  0.41792  0.64651  0.75534  1.0000
  O   O122      1.0  0.29361  0.60382  0.78471  1.0000
  H   H26       1.0  0.32723  0.57435  0.7897399999999999  1.0000
  S   S19       1.0  0.3994399999999999  0.29543  0.79817  1.0000
  O   O123      1.0  0.45513  0.25499  0.7811  1.0000
  O   O124      1.0  0.42364  0.34578  0.76677  1.0000
  O   O125      1.0  0.39284  0.3006  0.88886  1.0000
  H   H27       1.0  0.42383  0.33028  0.90229  1.0000
  S   S20       1.0  0.6548  0.64857  0.26097  1.0000
  O   O126      1.0  0.66199  0.63132  0.33841  1.0000
  O   O127      1.0  0.57551  0.65166  0.24145999999999998  1.0000
  O   O128      1.0  0.69559  0.60481  0.20764  1.0000
  H   H28       1.0  0.65853  0.57773  0.19992  1.0000
  S   S21       1.0  0.59539  0.72879  0.80579  1.0000
  O   O129      1.0  0.54968  0.77205  0.77708  1.0000
  O   O130      1.0  0.55748  0.6790499999999999  0.79068  1.0000
  O   O131      1.0  0.60488  0.73626  0.8959899999999998  1.0000
  H   H29       1.0  0.58383  0.70499  0.91808  1.0000
  S   S22       1.0  0.34258  0.35065  0.26067  1.0000
  O   O132      1.0  0.33611  0.36772  0.33823  1.0000
  O   O133      1.0  0.42166  0.34880999999999995  0.24006  1.0000
  O   O134      1.0  0.2993799999999999  0.39381  0.20826  1.0000
  H   H30       1.0  0.33814  0.41138  0.18033  1.0000
  S   S23       1.0  0.40282  0.73078  0.19147  1.0000
  O   O135      1.0  0.45405  0.7673699999999999  0.22844999999999996  1.0000
  O   O136      1.0  0.43663  0.67847  0.18892  1.0000
  O   O137      1.0  0.38877  0.75143  0.10609  1.0000
  H   H31       1.0  0.42166  0.7306699999999999  0.07518  1.0000
  S   S24       1.0  0.65716  0.3506099999999999  0.73969  1.0000
  O   O138      1.0  0.66383  0.36769  0.66215  1.0000
  O   O139      1.0  0.57813  0.34862  0.76034  1.0000
  O   O140      1.0  0.70023  0.39368  0.79241  1.0000
  H   H32       1.0  0.66268  0.41931  0.80546  1.0000
  S   S25       1.0  0.09769  0.77111  0.69096  1.0000
  O   O141      1.0  0.04485999999999999  0.7357  0.72791  1.0000
  O   O142      1.0  0.06555  0.82391  0.68739  1.0000
  O   O143      1.0  0.11149999999999999  0.7496299999999999  0.60593  1.0000
  H   H33       1.0  0.09118999999999998  0.7762399999999999  0.57338  1.0000
  S   S26       1.0  0.84117  0.14866  0.23750999999999997  1.0000
  O   O144      1.0  0.8342799999999999  0.13252  0.15956  1.0000
  O   O145      1.0  0.9202199999999999  0.14976  0.25833  1.0000
  O   O146      1.0  0.79739  0.10542  0.28928  1.0000
  H   H34       1.0  0.83182  0.07642  0.29438  1.0000
  S   S27       1.0  0.9021999999999999  0.77116  0.30828  1.0000
  O   O147      1.0  0.9533999999999999  0.73348  0.27362  1.0000
  O   O148      1.0  0.93564  0.82358  0.30717  1.0000
  O   O149      1.0  0.88875  0.75373  0.39514  1.0000
  H   H35       1.0  0.9295199999999999  0.76934  0.42255  1.0000
  S   S28       1.0  0.15886  0.1486  0.76273  1.0000
  O   O150      1.0  0.1658  0.13245  0.84063  1.0000
  O   O151      1.0  0.07974  0.14974  0.74209  1.0000
  O   O152      1.0  0.20238  0.10523  0.71088  1.0000
  H   H36       1.0  0.16558  0.07842  0.70017  1.0000
  S   S29       1.0  0.09988  0.20524  0.29822  1.0000
  O   O153      1.0  0.04476  0.24608999999999998  0.2812  1.0000
  O   O154      1.0  0.07508  0.15504  0.26673  1.0000
  O   O155      1.0  0.10603  0.19972  0.3889  1.0000
  H   H37       1.0  0.06642  0.17569  0.40288  1.0000
  S   S30       1.0  0.84617  0.85093  0.75958  1.0000
  O   O156      1.0  0.83904  0.86874  0.83679  1.0000
  O   O157      1.0  0.9254099999999998  0.8474299999999999  0.74009  1.0000
  O   O158      1.0  0.8058  0.89447  0.70569  1.0000
  H   H38       1.0  0.84042  0.92356  0.70331  1.0000
  S   S31       1.0  0.90018  0.20875  0.69966  1.0000
  O   O159      1.0  0.95419  0.24977  0.71936  1.0000
  O   O160      1.0  0.9269499999999999  0.15779  0.72656  1.0000
  O   O161      1.0  0.8926399999999999  0.20687  0.60875  1.0000
  H   H39       1.0  0.9334899999999999  0.18494999999999998  0.59205  1.0000
  S   S32       1.0  0.15596  0.8512  0.23887  1.0000
  O   O162      1.0  0.1631  0.86801  0.16122  1.0000
  O   O163      1.0  0.0768  0.84896  0.25896  1.0000
  O   O164      1.0  0.19793  0.89476  0.29158  1.0000
  H   H40       1.0  0.16637  0.92553  0.28984  1.0000
  N   N9        1.0  0.36851  0.94682  0.46740999999999994  1.0000
  O   O165      1.0  0.31259  0.9484799999999998  0.51066  1.0000
  O   O166      1.0  0.3615499999999999  0.92651  0.40331  1.0000
  N   N10       1.0  0.6356  0.05197  0.50556  1.0000
  O   O167      1.0  0.67732  0.04876  0.56238  1.0000
  O   O168      1.0  0.66309  0.06805  0.44463  1.0000
  N   N11       1.0  0.63274  0.94729  0.52639  1.0000
  O   O169      1.0  0.64296  0.92873  0.5911  1.0000
  O   O170      1.0  0.68631  0.9476199999999999  0.48021  1.0000
  N   N12       1.0  0.3649  0.051759999999999994  0.4862099999999999  1.0000
  O   O171      1.0  0.33379  0.06725  0.5457  1.0000
  O   O172      1.0  0.32626  0.04809  0.42732  1.0000
  N   N13       1.0  0.86594  0.44816  0.02237  1.0000
  O   O173      1.0  0.83083  0.45335  0.08315  1.0000
  O   O174      1.0  0.83086  0.43201999999999996  0.9655099999999999  1.0000
  N   N14       1.0  0.13117  0.55314  0.96762  1.0000
  O   O175      1.0  0.18616  0.55333  0.01207  1.0000
  O   O176      1.0  0.13877  0.57219  0.9028899999999999  1.0000
  N   N15       1.0  0.13463  0.44823999999999997  0.9825999999999999  1.0000
  O   O177      1.0  0.16787  0.43188999999999994  0.0404  1.0000
  O   O178      1.0  0.17137  0.45308  0.9227199999999999  1.0000
  N   N16       1.0  0.86981  0.55325  0.03715  1.0000
  O   O179      1.0  0.8653299999999998  0.57444  0.10088  1.0000
  O   O180      1.0  0.8124399999999999  0.55145  0.99587  1.0000
