data_image0
_chemical_formula_structural       C26H9N2O8Zn2HCH6CH3CH4CH4CH5CH3CH3
_chemical_formula_sum              "C33 H38 N2 O8 Zn2"
_cell_length_a       10.69635
_cell_length_b       10.65512
_cell_length_c       9.9355
_cell_angle_alpha    89.12030999999999
_cell_angle_beta     88.96918000000001
_cell_angle_gamma    92.1068

_space_group_name_H-M_alt    "P 1"
_space_group_IT_number       1

loop_
  _space_group_symop_operation_xyz
  'x, y, z'

loop_
  _atom_site_type_symbol
  _atom_site_label
  _atom_site_symmetry_multiplicity
  _atom_site_fract_x
  _atom_site_fract_y
  _atom_site_fract_z
  _atom_site_occupancy
  C   C1        1.0  0.5053999999999998  0.26025  0.50016  1.0000
  C   C2        1.0  0.8791199999999999  0.49617999999999995  0.49968  1.0000
  C   C3        1.0  0.9397599999999999  0.6304799999999999  0.46792  1.0000
  C   C4        1.0  0.92676  0.39691999999999994  0.39639  1.0000
  C   C5        1.0  0.57512  0.0651  0.60564  1.0000
  C   C6        1.0  0.52887  0.12969999999999998  0.49541  1.0000
  C   C7        1.0  0.51191  0.06675  0.37353  1.0000
  C   C8        1.0  0.51131  0.93758  0.37289  1.0000
  C   C9        1.0  0.5290699999999999  0.87203  0.49379  1.0000
  C   C10       1.0  0.5742899999999999  0.9363699999999998  0.60517  1.0000
  C   C11       1.0  0.54035  0.9249699999999998  0.75159  1.0000
  C   C12       1.0  0.25814  0.49556999999999995  0.50144  1.0000
  C   C13       1.0  0.54047  0.06783  0.75171  1.0000
  C   C14       1.0  0.43642999999999993  0.4074499999999999  0.07405  1.0000
  C   C15       1.0  0.57047  0.58608  0.06599  1.0000
  C   C16       1.0  0.5701899999999999  0.58493  0.9233499999999999  1.0000
  C   C17       1.0  0.43547999999999987  0.40777  0.93161  1.0000
  C   C18       1.0  0.29683  0.3817799999999999  0.9313399999999998  1.0000
  C   C19       1.0  0.29944  0.37779  0.08554  1.0000
  C   C20       1.0  0.5057  0.7399599999999998  0.49884  1.0000
  C   C21       1.0  0.74228  0.5004699999999999  0.49959  1.0000
  C   C22       1.0  0.06701999999999998  0.4744  0.64883  1.0000
  C   C23       1.0  0.92455  0.45896999999999993  0.64343  1.0000
  C   C24       1.0  0.08111  0.6186  0.44545  1.0000
  C   C25       1.0  0.07019  0.38163  0.41453  1.0000
  C   C26       1.0  0.12187  0.49123999999999995  0.50348  1.0000
  H   H1        1.0  0.9147899999999999  0.43742  0.2937  1.0000
  H   H2        1.0  0.10633  0.62478  0.33612  1.0000
  H   H3        1.0  0.6162099999999999  0.88361  0.8109599999999999  1.0000
  H   H4        1.0  0.44666  0.10487999999999999  0.7684  1.0000
  H   H5        1.0  0.10428999999999998  0.39148  0.70031  1.0000
  H   H6        1.0  0.6253699999999999  0.65437  0.86522  1.0000
  H   H7        1.0  0.89419  0.36071999999999993  0.67011  1.0000
  H   H8        1.0  0.13123  0.69839  0.4951499999999999  1.0000
  H   H9        1.0  0.11353999999999999  0.39206  0.31259  1.0000
  N   N1        1.0  0.49914999999999987  0.4991399999999999  0.14279999999999998  1.0000
  N   N2        1.0  0.49914999999999987  0.49917999999999996  0.85715  1.0000
  O   O1        1.0  0.5000199999999999  0.31678999999999996  0.61469  1.0000
  O   O2        1.0  0.4999999999999999  0.31675999999999993  0.38534999999999997  1.0000
  O   O3        1.0  0.3148  0.4999999999999999  0.61467  1.0000
  O   O4        1.0  0.31479  0.49996  0.38533  1.0000
  O   O5        1.0  0.4999999999999999  0.68324  0.61465  1.0000
  O   O6        1.0  0.49998  0.68321  0.38531  1.0000
  O   O7        1.0  0.6852099999999999  0.50004  0.61467  1.0000
  O   O8        1.0  0.6851999999999998  0.4999999999999999  0.38533  1.0000
  Zn  Zn1       1.0  0.50001  0.50002  0.65313  1.0000
  Zn  Zn2       1.0  0.49998999999999993  0.49997999999999987  0.34687  1.0000
  H   H10       1.0  0.0931  0.55795  0.70976  1.0000
  C   C27       1.0  0.8846799999999999  0.7052999999999999  0.35191  1.0000
  H   H11       1.0  0.7914499999999999  0.7378399999999999  0.38317  1.0000
  H   H12       1.0  0.9439399999999999  0.79112  0.32911  1.0000
  H   H13       1.0  0.8796  0.64829  0.25976  1.0000
  H   H14       1.0  0.48807999999999996  0.11534  0.28164  1.0000
  H   H15       1.0  0.48529999999999995  0.8902299999999999  0.28135  1.0000
  H   H16       1.0  0.44577999999999995  0.8805599999999999  0.77026  1.0000
  C   C28       1.0  0.64262  0.12948  0.83703  1.0000
  H   H17       1.0  0.7356899999999998  0.09116  0.81365  1.0000
  H   H18       1.0  0.6474899999999999  0.23238999999999985  0.81725  1.0000
  H   H19       1.0  0.61976  0.11249999999999998  0.9453900000000001  1.0000
  C   C29       1.0  0.64797  0.68857  0.12651  1.0000
  H   H20       1.0  0.6605099999999999  0.6704899999999998  0.23288999999999999  1.0000
  H   H21       1.0  0.74233  0.69417  0.0778  1.0000
  H   H22       1.0  0.60293  0.77975  0.11149  1.0000
  H   H23       1.0  0.24653  0.46379  0.89199  1.0000
  C   C30       1.0  0.25759  0.25982  0.8612299999999999  1.0000
  H   H24       1.0  0.30547  0.17788  0.9019599999999999  1.0000
  H   H25       1.0  0.15524999999999997  0.24207999999999993  0.8752  1.0000
  H   H26       1.0  0.27965  0.26843999999999996  0.7519  1.0000
  H   H27       1.0  0.24751  0.45550999999999997  0.13109  1.0000
  C   C31       1.0  0.27254  0.25057  0.15656  1.0000
  H   H28       1.0  0.33518999999999993  0.17718  0.12006  1.0000
  H   H29       1.0  0.2891599999999999  0.26041  0.26543  1.0000
  H   H30       1.0  0.17349999999999996  0.21965  0.14225999999999997  1.0000
  H   H31       1.0  0.8846299999999999  0.5199  0.72221  1.0000
  H   H32       1.0  0.9263199999999999  0.6892499999999998  0.55867  1.0000
  C   C32       1.0  0.1072  0.25115  0.46974999999999995  1.0000
  H   H33       1.0  0.09091999999999999  0.17782  0.39333  1.0000
  H   H34       1.0  0.20814  0.25094999999999995  0.49349  1.0000
  H   H35       1.0  0.05351999999999999  0.22347  0.56266  1.0000
  C   C33       1.0  0.8495399999999999  0.27069  0.3966199999999999  1.0000
  H   H36       1.0  0.7533200000000002  0.28398999999999996  0.36141  1.0000
  H   H37       1.0  0.8912599999999998  0.20494999999999994  0.32444  1.0000
  H   H38       1.0  0.84324  0.22591999999999995  0.4980899999999999  1.0000
