data_image0
_chemical_formula_structural       C42H14N4O12Zn2C2H5C2H5C2H5C2H5C2H5C2H5
_chemical_formula_sum              "C54 H44 N4 O12 Zn2"
_cell_length_a       7.78716
_cell_length_b       8.53058
_cell_length_c       27.592530000000004
_cell_angle_alpha    90.09259999999999
_cell_angle_beta     86.80316999999998
_cell_angle_gamma    94.15969

_space_group_name_H-M_alt    "P 1"
_space_group_IT_number       1

loop_
  _space_group_symop_operation_xyz
  'x, y, z'

loop_
  _atom_site_type_symbol
  _atom_site_label
  _atom_site_symmetry_multiplicity
  _atom_site_fract_x
  _atom_site_fract_y
  _atom_site_fract_z
  _atom_site_occupancy
  C   C1        1.0  0.54606  0.79466  0.4987  1.0000
  C   C2        1.0  0.45394000000000007  0.20534  0.5013  1.0000
  C   C3        1.0  0.5615900000000001  0.44729  0.89676  1.0000
  C   C4        1.0  0.48666  0.51013  0.10054  1.0000
  C   C5        1.0  0.6518900000000002  0.57066  0.86872  1.0000
  C   C6        1.0  0.41315  0.3826  0.12887  1.0000
  C   C7        1.0  0.7342  0.70195  0.89244  1.0000
  C   C8        1.0  0.31877  0.25728  0.10673  1.0000
  C   C9        1.0  0.48001  0.31502  0.87353  1.0000
  C   C10       1.0  0.54048  0.65386  0.12329  1.0000
  C   C11       1.0  0.51201  0.48255  0.64616  1.0000
  C   C12       1.0  0.48645  0.51105  0.35394  1.0000
  C   C13       1.0  0.59125  0.61444  0.021430000000000005  1.0000
  C   C14       1.0  0.45948000000000006  0.33648  0.97605  1.0000
  C   C15       1.0  0.43541000000000013  0.35456  0.027170000000000003  1.0000
  C   C16       1.0  0.6236900000000001  0.59225  0.97098  1.0000
  C   C17       1.0  0.50522  0.49277999999999994  0.04962  1.0000
  C   C18       1.0  0.5484899999999998  0.45841  0.948  1.0000
  C   C19       1.0  0.6327700000000003  0.7598  0.04369  1.0000
  C   C20       1.0  0.40356000000000003  0.19697  0.9524800000000001  1.0000
  C   C21       1.0  0.61142  0.78311  0.09392  1.0000
  C   C22       1.0  0.41173000000000004  0.18285  0.9018  1.0000
  C   C23       1.0  0.5034299999999998  0.49700000000000005  0.59379  1.0000
  C   C24       1.0  0.49630000000000024  0.50159  0.40627  1.0000
  C   C25       1.0  0.7308  0.70107  0.943  1.0000
  C   C26       1.0  0.33153000000000005  0.24484  0.05628  1.0000
  C   C27       1.0  0.56995  0.95873  0.49799  1.0000
  C   C28       1.0  0.43005999999999994  0.04127  0.50202  1.0000
  C   C29       1.0  0.6548600000000002  0.55698  0.81784  1.0000
  C   C30       1.0  0.43401999999999996  0.38716999999999996  0.17864000000000005  1.0000
  C   C31       1.0  0.46823  0.32264  0.82277  1.0000
  C   C32       1.0  0.51568  0.6612999999999999  0.17458  1.0000
  C   C33       1.0  0.64864  0.38027  0.71451  1.0000
  C   C34       1.0  0.61028  0.59718  0.27587  1.0000
  C   C35       1.0  0.63961  0.39616  0.66483  1.0000
  C   C36       1.0  0.62105  0.58732  0.32575  1.0000
  C   C37       1.0  0.39335000000000003  0.55351  0.67753  1.0000
  C   C38       1.0  0.33749  0.4508  0.33244  1.0000
  C   C39       1.0  0.40394  0.54241  0.72806  1.0000
  C   C40       1.0  0.3209000000000001  0.46582  0.28244  1.0000
  C   C41       1.0  0.53254  0.45277  0.746  1.0000
  C   C42       1.0  0.46393  0.53319  0.25337  1.0000
  H   H1        1.0  0.29634  0.61941  0.66202  1.0000
  H   H2        1.0  0.23453000000000002  0.39123  0.35492  1.0000
  H   H3        1.0  0.012929999999999968  0.38383  0.4635800000000001  1.0000
  H   H4        1.0  0.9870700000000001  0.61623  0.5364  1.0000
  H   H5        1.0  0.73496  0.63831  0.3423  1.0000
  H   H6        1.0  0.7314100000000002  0.33957  0.64098  1.0000
  H   H7        1.0  0.71923  0.65091  0.25434  1.0000
  H   H8        1.0  0.74788  0.31367  0.72878  1.0000
  H   H9        1.0  0.67569  0.85895  0.02132  1.0000
  H   H10       1.0  0.35552999999999996  0.09618  0.9735200000000003  1.0000
  H   H11       1.0  0.8132100000000002  0.78755  0.96051  1.0000
  H   H12       1.0  0.25024  0.15268  0.04063  1.0000
  H   H13       1.0  0.7016800000000002  0.01091  0.49418  1.0000
  H   H14       1.0  0.29832  0.98909  0.50583  1.0000
  N   N1        1.0  0.5530799999999999  0.44289  0.79692  1.0000
  N   N2        1.0  0.46874  0.52771  0.20108  1.0000
  N   N3        1.0  0.95032  0.45796  0.48688  1.0000
  N   N4        1.0  0.049679999999999995  0.54204  0.51312  1.0000
  O   O1        1.0  0.38925000000000004  0.73857  0.50322  1.0000
  O   O2        1.0  0.61075  0.26143  0.49678  1.0000
  O   O3        1.0  0.67839  0.71163  0.49481  1.0000
  O   O4        1.0  0.32161  0.28837  0.50519  1.0000
  O   O5        1.0  0.35544  0.51344  0.57545  1.0000
  O   O6        1.0  0.64456  0.48656000000000005  0.42455  1.0000
  O   O7        1.0  0.6445899999999999  0.48649999999999993  0.56704  1.0000
  O   O8        1.0  0.35541  0.5135  0.43296  1.0000
  O   O9        1.0  0.75691  0.65558  0.78879  1.0000
  O   O10       1.0  0.42321  0.25207  0.20437  1.0000
  O   O11       1.0  0.5384400000000003  0.7988499999999998  0.19819000000000003  1.0000
  O   O12       1.0  0.36937  0.21496  0.79904  1.0000
  Zn  Zn1       1.0  0.30693999999999994  0.51799  0.50562  1.0000
  Zn  Zn2       1.0  0.6930600000000002  0.48201  0.49438  1.0000
  C   C43       1.0  0.28447  0.62502  0.76372  1.0000
  C   C44       1.0  0.16045  0.73097  0.74098  1.0000
  H   H15       1.0  0.23291999999999988  0.82246  0.71781  1.0000
  H   H16       1.0  0.06691  0.66023  0.71936  1.0000
  H   H17       1.0  0.08730000000000002  0.79171  0.77008  1.0000
  H   H18       1.0  0.20749999999999996  0.53504  0.78647  1.0000
  H   H19       1.0  0.36419  0.69978  0.7881700000000001  1.0000
  C   C45       1.0  0.15376999999999993  0.40374  0.26125  1.0000
  C   C46       1.0  0.9956400000000002  0.46793  0.28668  1.0000
  H   H20       1.0  0.9775000000000003  0.4283  0.32500000000000007  1.0000
  H   H21       1.0  0.0060399999999999985  0.5984  0.28514  1.0000
  H   H22       1.0  0.88093  0.42154  0.2677  1.0000
  H   H23       1.0  0.14980000000000002  0.43714  0.22259  1.0000
  H   H24       1.0  0.14177  0.27342  0.26405  1.0000
  C   C47       1.0  0.81642  0.84692  0.86489  1.0000
  C   C48       1.0  0.84725  0.99761  0.89462  1.0000
  H   H25       1.0  0.7284699999999998  0.02416  0.9162400000000003  1.0000
  H   H26       1.0  0.9541  0.98784  0.91904  1.0000
  H   H27       1.0  0.8839200000000002  0.09803  0.8696600000000001  1.0000
  H   H28       1.0  0.9410700000000003  0.81775  0.84693  1.0000
  H   H29       1.0  0.72794  0.8796  0.83702  1.0000
  C   C49       1.0  0.17313000000000006  0.15935  0.13385  1.0000
  C   C50       1.0  0.20712999999999998  0.9863399999999999  0.13851  1.0000
  H   H30       1.0  0.26504  0.94046  0.10413  1.0000
  H   H31       1.0  0.29214  0.9706899999999999  0.16871  1.0000
  H   H32       1.0  0.0839  0.91625  0.14754000000000003  1.0000
  H   H33       1.0  0.14016999999999993  0.20712  0.17026  1.0000
  H   H34       1.0  0.05535  0.16762  0.11371  1.0000
  C   C51       1.0  0.6703499999999999  0.9427699999999999  0.11549  1.0000
  C   C52       1.0  0.73764  0.07332  0.07974  1.0000
  H   H35       1.0  0.6389899999999998  0.09619  0.05368  1.0000
  H   H36       1.0  0.85805  0.04164  0.05979  1.0000
  H   H37       1.0  0.76497  0.18416  0.09996  1.0000
  H   H38       1.0  0.56111  0.9910599999999999  0.13616  1.0000
  H   H39       1.0  0.77342  0.9252199999999999  0.14075  1.0000
  C   C53       1.0  0.3529  0.02651  0.87822  1.0000
  C   C54       1.0  0.32903000000000004  0.88149  0.91132  1.0000
  H   H40       1.0  0.44543  0.86976  0.93195  1.0000
  H   H41       1.0  0.21521999999999997  0.88823  0.93705  1.0000
  H   H42       1.0  0.30768  0.77427  0.88891  1.0000
  H   H43       1.0  0.22871000000000002  0.03928  0.86125  1.0000
  H   H44       1.0  0.45157999999999987  0.99878  0.8494700000000002  1.0000
