data_image0
_chemical_formula_structural       C36H15N2O8Zn2NH2NH2NH2FNH2NH2NH2NH2F
_chemical_formula_sum              "C36 H29 N9 O8 Zn2 F2"
_cell_length_a       10.86326
_cell_length_b       10.634949999999998
_cell_length_c       10.03943
_cell_angle_alpha    90.20191
_cell_angle_beta     91.24696
_cell_angle_gamma    90.32821

_space_group_name_H-M_alt    "P 1"
_space_group_IT_number       1

loop_
  _space_group_symop_operation_xyz
  'x, y, z'

loop_
  _atom_site_type_symbol
  _atom_site_label
  _atom_site_symmetry_multiplicity
  _atom_site_fract_x
  _atom_site_fract_y
  _atom_site_fract_z
  _atom_site_occupancy
  C   C1        1.0  0.49919  0.26093  0.4999  1.0000
  C   C2        1.0  0.21368000000000006  0.6783799999999999  0.027939999999999996  1.0000
  C   C3        1.0  0.9311200000000001  0.51442  0.3814  1.0000
  C   C4        1.0  0.87293  0.50617  0.50381  1.0000
  C   C5        1.0  0.94176  0.52433  0.62336  1.0000
  C   C6        1.0  0.06709  0.55276  0.61369  1.0000
  C   C7        1.0  0.12673  0.5258999999999999  0.49573  1.0000
  C   C8        1.0  0.057360000000000015  0.5254099999999999  0.37703  1.0000
  C   C9        1.0  0.8652100000000001  0.5816899999999999  0.8510999999999999  1.0000
  C   C10       1.0  0.83541  0.5451499999999999  0.9800600000000002  1.0000
  C   C11       1.0  0.82513  0.41794  0.01163  1.0000
  C   C12       1.0  0.26038000000000006  0.5093999999999999  0.4984100000000001  1.0000
  C   C13       1.0  0.8466500000000001  0.32647  0.915  1.0000
  C   C14       1.0  0.8811200000000002  0.3622399999999999  0.78738  1.0000
  C   C15       1.0  0.8931300000000002  0.4901899999999999  0.7553  1.0000
  C   C16       1.0  0.55504  0.06555  0.6035  1.0000
  C   C17       1.0  0.49378  0.12882999999999997  0.50124  1.0000
  C   C18       1.0  0.42430000000000007  0.06399  0.40414  1.0000
  C   C19       1.0  0.4265  0.93418  0.40321999999999997  1.0000
  C   C20       1.0  0.4961900000000001  0.8714299999999998  0.50092  1.0000
  C   C21       1.0  0.5563300000000001  0.9368599999999999  0.60351  1.0000
  C   C22       1.0  0.69037  0.9334399999999998  0.64133  1.0000
  C   C23       1.0  0.50077  0.73919  0.50009  1.0000
  C   C24       1.0  0.68828  0.07548999999999999  0.64223  1.0000
  C   C25       1.0  0.45743  0.39897999999999995  0.06885  1.0000
  C   C26       1.0  0.5342  0.60409  0.07316  1.0000
  C   C27       1.0  0.53658  0.60319  0.9295500000000001  1.0000
  C   C28       1.0  0.45970000000000005  0.39851999999999993  0.9285600000000002  1.0000
  C   C29       1.0  0.5047800000000001  0.2669  0.923  1.0000
  C   C30       1.0  0.5004500000000001  0.26597999999999994  0.07454  1.0000
  C   C31       1.0  0.73982  0.49867999999999996  0.50157  1.0000
  C   C32       1.0  0.184  0.7560799999999998  0.13491  1.0000
  C   C33       1.0  0.12993000000000002  0.70643  0.24748  1.0000
  C   C34       1.0  0.10852  0.5763799999999999  0.25524  1.0000
  C   C35       1.0  0.13487  0.49677  0.14885  1.0000
  C   C36       1.0  0.18390000000000004  0.5481099999999999  0.03204  1.0000
  H   H1        1.0  0.80197  0.39022999999999997  0.11142000000000002  1.0000
  H   H2        1.0  0.83906  0.22781999999999994  0.93983  1.0000
  H   H3        1.0  0.90133  0.29042  0.71441  1.0000
  H   H4        1.0  0.37172000000000005  0.11331999999999999  0.32802  1.0000
  H   H5        1.0  0.37694  0.88326  0.32518  1.0000
  H   H6        1.0  0.70778  0.8938999999999999  0.74187  1.0000
  H   H7        1.0  0.74803  0.8932  0.56165  1.0000
  H   H8        1.0  0.7028000000000001  0.11634  0.74328  1.0000
  H   H9        1.0  0.74503  0.11857  0.56335  1.0000
  H   H10       1.0  0.20172000000000004  0.8563199999999999  0.12986  1.0000
  H   H11       1.0  0.43611000000000005  0.20237999999999998  0.8750600000000001  1.0000
  H   H12       1.0  0.59902  0.26096  0.8833999999999999  1.0000
  H   H13       1.0  0.4304100000000001  0.20047999999999994  0.11434000000000001  1.0000
  H   H14       1.0  0.8788000000000001  0.51804  0.28856  1.0000
  H   H15       1.0  0.8206800000000002  0.61542  0.05581  1.0000
  N   N1        1.0  0.4991600000000001  0.49914  0.1428  1.0000
  N   N2        1.0  0.4991600000000001  0.49917999999999996  0.85715  1.0000
  O   O1        1.0  0.50002  0.31679  0.61469  1.0000
  O   O2        1.0  0.5  0.31675999999999993  0.38535  1.0000
  O   O3        1.0  0.31677  0.50003  0.61467  1.0000
  O   O4        1.0  0.31675  0.4999899999999999  0.38533  1.0000
  O   O5        1.0  0.5  0.68324  0.61465  1.0000
  O   O6        1.0  0.49998000000000004  0.6832099999999998  0.38531  1.0000
  O   O7        1.0  0.68325  0.5000099999999998  0.61467  1.0000
  O   O8        1.0  0.68323  0.49997  0.38533  1.0000
  Zn  Zn1       1.0  0.5000100000000001  0.50002  0.65313  1.0000
  Zn  Zn2       1.0  0.49999000000000005  0.49997999999999987  0.34687  1.0000
  N   N3        1.0  0.26602  0.73611  0.91337  1.0000
  H   H16       1.0  0.32870000000000005  0.80519  0.94551  1.0000
  H   H17       1.0  0.31652  0.6699699999999998  0.8612599999999999  1.0000
  N   N4        1.0  0.57003  0.715  0.14529  1.0000
  H   H18       1.0  0.66109  0.7381799999999998  0.12491  1.0000
  H   H19       1.0  0.51325  0.789  0.11491  1.0000
  N   N5        1.0  0.58015  0.71114  0.8602600000000001  1.0000
  H   H20       1.0  0.66624  0.73607  0.8996  1.0000
  H   H21       1.0  0.52186  0.7865799999999998  0.87792  1.0000
  F   F1        1.0  0.6156500000000001  0.25454  0.13435  1.0000
  N   N6        1.0  0.09502000000000001  0.7879699999999998  0.35408  1.0000
  H   H22       1.0  0.03472  0.8554799999999999  0.31522  1.0000
  H   H23       1.0  0.17369000000000004  0.83443  0.3907  1.0000
  N   N7        1.0  0.11479000000000003  0.3639299999999999  0.1628  1.0000
  H   H24       1.0  0.19979  0.3187  0.15847  1.0000
  H   H25       1.0  0.05881  0.33161  0.08403  1.0000
  N   N8        1.0  0.19495  0.47058  0.91599  1.0000
  H   H26       1.0  0.10598  0.44827  0.88322  1.0000
  H   H27       1.0  0.23241000000000003  0.38423  0.94277  1.0000
  N   N9        1.0  0.1308  0.62901  0.71057  1.0000
  H   H28       1.0  0.0726  0.66147  0.78316  1.0000
  H   H29       1.0  0.16074000000000002  0.71032  0.66224  1.0000
  F   F2        1.0  0.86948  0.70583  0.82044  1.0000
