data_image0
_chemical_formula_structural       C68H72N4O48Zn4
_chemical_formula_sum              "C68 H72 N4 O48 Zn4"
_cell_length_a       15.41604
_cell_length_b       15.60603
_cell_length_c       9.817200000000001
_cell_angle_alpha    88.71128000000002
_cell_angle_beta     89.89749
_cell_angle_gamma    90.29514

_space_group_name_H-M_alt    "P 1"
_space_group_IT_number       1

loop_
  _space_group_symop_operation_xyz
  'x, y, z'

loop_
  _atom_site_type_symbol
  _atom_site_label
  _atom_site_symmetry_multiplicity
  _atom_site_fract_x
  _atom_site_fract_y
  _atom_site_fract_z
  _atom_site_occupancy
  C   C1        1.0  0.12531  0.38302  0.50079  1.0000
  C   C2        1.0  0.8820200000000002  0.62403  0.4989  1.0000
  C   C3        1.0  0.3858  0.87303  0.50123  1.0000
  C   C4        1.0  0.38435000000000014  0.12599  0.4988699999999999  1.0000
  C   C5        1.0  0.8463100000000002  0.22608  0.586  1.0000
  C   C6        1.0  0.8011700000000003  0.27691  0.35154  1.0000
  C   C7        1.0  0.8314400000000002  0.76119  0.37493999999999994  1.0000
  C   C8        1.0  0.8259700000000002  0.75004  0.62997  1.0000
  C   C9        1.0  0.33758  0.73176  0.6215399999999999  1.0000
  C   C10       1.0  0.33059  0.74542  0.36999  1.0000
  C   C11       1.0  0.33583000000000013  0.26643  0.37798  1.0000
  C   C12       1.0  0.12585000000000005  0.61634  0.49921  1.0000
  C   C13       1.0  0.3282700000000001  0.2530399999999999  0.6306499999999999  1.0000
  C   C14       1.0  0.25552  0.67194  0.63339  1.0000
  C   C15       1.0  0.2670900000000001  0.66661  0.37944  1.0000
  C   C16       1.0  0.2556  0.32781  0.36825  1.0000
  C   C17       1.0  0.26475  0.33132  0.62252  1.0000
  C   C18       1.0  0.7681200000000002  0.16162  0.6024299999999999  1.0000
  C   C19       1.0  0.7428900000000003  0.19532  0.35413  1.0000
  C   C20       1.0  0.7528400000000001  0.82487  0.36766999999999994  1.0000
  C   C21       1.0  0.76312  0.82853  0.62201  1.0000
  C   C22       1.0  0.72807  0.33925  0.56226  1.0000
  C   C23       1.0  0.6244500000000002  0.88202  0.50087  1.0000
  C   C24       1.0  0.7242200000000002  0.65642  0.48775  1.0000
  C   C25       1.0  0.23017000000000007  0.8388199999999998  0.51482  1.0000
  C   C26       1.0  0.22787000000000004  0.15952999999999995  0.48535  1.0000
  C   C27       1.0  0.8152500000000003  0.3075099999999999  0.50166  1.0000
  C   C28       1.0  0.8171300000000001  0.69539  0.49738  1.0000
  C   C29       1.0  0.3224900000000001  0.79997  0.50262  1.0000
  C   C30       1.0  0.32049  0.19855  0.49756999999999996  1.0000
  C   C31       1.0  0.19936000000000006  0.68017  0.4984199999999999  1.0000
  C   C32       1.0  0.19824000000000006  0.31873  0.50197  1.0000
  C   C33       1.0  0.6943  0.18622  0.49612999999999996  1.0000
  C   C34       1.0  0.6234100000000002  0.11937  0.49857  1.0000
  C   C35       1.0  0.69612  0.81645  0.50199  1.0000
  C   C36       1.0  0.16066  0.7715  0.4835999999999999  1.0000
  C   C37       1.0  0.15862000000000007  0.22712  0.51476  1.0000
  C   C38       1.0  0.6549200000000002  0.27498  0.53043  1.0000
  C   C39       1.0  0.6554700000000002  0.72508  0.51529  1.0000
  C   C40       1.0  0.026160000000000006  0.41705  0.08278  1.0000
  C   C41       1.0  0.03770000000000001  0.4218  0.92295  1.0000
  C   C42       1.0  0.04766  0.57271  0.91703  1.0000
  C   C43       1.0  0.05524  0.56702  0.07714  1.0000
  C   C44       1.0  0.5454400000000003  0.92642  0.08312  1.0000
  C   C45       1.0  0.9116500000000002  0.51576  0.0795  1.0000
  C   C46       1.0  0.54119  0.92413  0.92292  1.0000
  C   C47       1.0  0.5445800000000002  0.07529  0.9165899999999999  1.0000
  C   C48       1.0  0.53918  0.07743  0.07704  1.0000
  C   C49       1.0  0.89418  0.24286000000000002  0.7186799999999999  1.0000
  C   C50       1.0  0.7714400000000002  0.34666  0.24859  1.0000
  C   C51       1.0  0.84965  0.72227  0.23752  1.0000
  C   C52       1.0  0.81685  0.69879  0.7632999999999999  1.0000
  C   C53       1.0  0.3664900000000001  0.76535  0.75735  1.0000
  C   C54       1.0  0.3228000000000001  0.79525  0.23644  1.0000
  C   C55       1.0  0.3610000000000001  0.23226999999999995  0.24052  1.0000
  C   C56       1.0  0.9098900000000002  0.5033700000000002  0.91989  1.0000
  C   C57       1.0  0.32028  0.20253  0.76388  1.0000
  C   C58       1.0  0.20810000000000006  0.68473  0.7666299999999999  1.0000
  C   C59       1.0  0.2319  0.64607  0.24096  1.0000
  C   C60       1.0  0.20759000000000005  0.31782  0.23500999999999997  1.0000
  C   C61       1.0  0.22725000000000006  0.34993  0.7608  1.0000
  C   C62       1.0  0.7377600000000002  0.15292999999999995  0.7491  1.0000
  C   C63       1.0  0.6919900000000002  0.19329  0.22450999999999996  1.0000
  C   C64       1.0  0.7038600000000003  0.81726  0.23451999999999998  1.0000
  C   C65       1.0  0.7263700000000002  0.84654  0.76093  1.0000
  C   C66       1.0  0.4101500000000001  0.99436  0.08051999999999998  1.0000
  C   C67       1.0  0.4101400000000001  0.0040300000000000015  0.9199899999999999  1.0000
  C   C68       1.0  0.8806200000000002  0.37764  0.50104  1.0000
  H   H1        1.0  0.89536  0.19352  0.52165  1.0000
  H   H2        1.0  0.30680000000000013  0.6096099999999998  0.40924  1.0000
  H   H3        1.0  0.28155  0.39473  0.36466  1.0000
  H   H4        1.0  0.30478  0.38901  0.59533  1.0000
  H   H5        1.0  0.7928300000000003  0.09711  0.57524  1.0000
  H   H6        1.0  0.7867800000000003  0.13882  0.34826  1.0000
  H   H7        1.0  0.7804400000000002  0.89111  0.36468999999999996  1.0000
  H   H8        1.0  0.8033900000000003  0.88607  0.59489  1.0000
  H   H9        1.0  0.7343200000000002  0.34600999999999993  0.67392  1.0000
  H   H10       1.0  0.7103700000000002  0.40437  0.52506  1.0000
  H   H11       1.0  0.7129800000000002  0.62989  0.38561  1.0000
  H   H12       1.0  0.8657500000000002  0.25628  0.3127  1.0000
  H   H13       1.0  0.7151200000000002  0.6007  0.55857  1.0000
  H   H14       1.0  0.22010000000000005  0.8624599999999999  0.6195  1.0000
  H   H15       1.0  0.22171000000000005  0.89567  0.44600999999999996  1.0000
  H   H16       1.0  0.21792  0.13485  0.38140999999999997  1.0000
  H   H17       1.0  0.21865000000000007  0.10306  0.55481  1.0000
  H   H18       1.0  0.10309000000000003  0.78042  0.54958  1.0000
  H   H19       1.0  0.13585  0.7828399999999998  0.37897999999999993  1.0000
  H   H20       1.0  0.10181000000000003  0.21854999999999994  0.44721  1.0000
  H   H21       1.0  0.13235  0.21531  0.61846  1.0000
  H   H22       1.0  0.60788  0.2707499999999999  0.61604  1.0000
  H   H23       1.0  0.8903900000000002  0.79984  0.39858  1.0000
  H   H24       1.0  0.6168  0.30011  0.44266  1.0000
  H   H25       1.0  0.59901  0.71664  0.4471  1.0000
  H   H26       1.0  0.62806  0.71397  0.61845  1.0000
  H   H27       1.0  0.9792100000000002  0.36542  0.11227  1.0000
  H   H28       1.0  0.011150000000000004  0.36379  0.87495  1.0000
  H   H29       1.0  0.0173  0.63406  0.88421  1.0000
  H   H30       1.0  0.038  0.62961  0.12062  1.0000
  H   H31       1.0  0.519  0.86609  0.12839  1.0000
  H   H32       1.0  0.5085700000000002  0.86502  0.8898  1.0000
  H   H33       1.0  0.51856  0.13556  0.87066  1.0000
  H   H34       1.0  0.8932300000000002  0.77685  0.63076  1.0000
  H   H35       1.0  0.5031500000000002  0.13451  0.10877  1.0000
  H   H36       1.0  0.08751000000000003  0.4003099999999999  0.12912  1.0000
  H   H37       1.0  0.10741000000000003  0.42426  0.9019099999999999  1.0000
  H   H38       1.0  0.11292000000000006  0.5702100000000001  0.8735999999999999  1.0000
  H   H39       1.0  0.12266000000000003  0.55123  0.10354  1.0000
  H   H40       1.0  0.6134000000000002  0.93281  0.11371  1.0000
  H   H41       1.0  0.60754  0.92455  0.8847399999999999  1.0000
  H   H42       1.0  0.6132000000000002  0.0721  0.8867399999999999  1.0000
  H   H43       1.0  0.6048100000000002  0.08006  0.11693999999999999  1.0000
  H   H44       1.0  0.8625200000000001  0.47564  0.13162  1.0000
  H   H45       1.0  0.39238  0.68996  0.59048  1.0000
  H   H46       1.0  0.87328  0.44403  0.8965499999999998  1.0000
  H   H47       1.0  0.8739500000000001  0.55522  0.8699999999999999  1.0000
  H   H48       1.0  0.89428  0.58184  0.09885  1.0000
  H   H49       1.0  0.38135  0.9324099999999999  0.10835  1.0000
  H   H50       1.0  0.3676000000000001  0.9573499999999998  0.87213  1.0000
  H   H51       1.0  0.38104  0.06573  0.8925799999999999  1.0000
  H   H52       1.0  0.3675600000000001  0.04102  0.12802  1.0000
  H   H53       1.0  0.8881500000000002  0.28347  0.9120599999999999  1.0000
  H   H54       1.0  0.70689  0.45661  0.20864  1.0000
  H   H55       1.0  0.7900800000000002  0.67165  0.07585  1.0000
  H   H56       1.0  0.39765  0.71872  0.36861  1.0000
  H   H57       1.0  0.7430400000000003  0.61745  0.87994  1.0000
  H   H58       1.0  0.33114  0.8268999999999997  0.9248399999999999  1.0000
  H   H59       1.0  0.24888000000000005  0.87202  0.11495  1.0000
  H   H60       1.0  0.32101  0.16929  0.07639  1.0000
  H   H61       1.0  0.24717000000000006  0.12262  0.8832899999999999  1.0000
  H   H62       1.0  0.11823000000000003  0.74972  0.8727999999999999  1.0000
  H   H63       1.0  0.16967000000000004  0.69613  0.07786999999999998  1.0000
  H   H64       1.0  0.11895000000000003  0.25146  0.12621  1.0000
  H   H65       1.0  0.16534  0.2965699999999999  0.9225099999999999  1.0000
  H   H66       1.0  0.67438  0.20673  0.90626  1.0000
  H   H67       1.0  0.3924  0.30694  0.40718  1.0000
  H   H68       1.0  0.5976  0.24906  0.11234999999999999  1.0000
  H   H69       1.0  0.6136000000000003  0.75254  0.12727  1.0000
  H   H70       1.0  0.66136  0.79428  0.9208  1.0000
  H   H71       1.0  0.3953200000000001  0.28041  0.63185  1.0000
  H   H72       1.0  0.2792500000000001  0.60452  0.63953  1.0000
  N   N1        1.0  0.9987600000000002  0.5  0.13861  1.0000
  N   N2        1.0  0.9987600000000002  0.5  0.86139  1.0000
  N   N3        1.0  0.4987600000000001  0.0  0.13861  1.0000
  N   N4        1.0  0.4987600000000001  0.0  0.86139  1.0000
  O   O1        1.0  0.09253  0.40744  0.61604  1.0000
  O   O2        1.0  0.9073300000000002  0.40742  0.38396  1.0000
  O   O3        1.0  0.9073300000000002  0.59258  0.38396  1.0000
  O   O4        1.0  0.9073300000000002  0.59258  0.61604  1.0000
  O   O5        1.0  0.40733000000000014  0.90742  0.61604  1.0000
  O   O6        1.0  0.40733000000000014  0.90742  0.38396  1.0000
  O   O7        1.0  0.40733000000000014  0.09258  0.38396  1.0000
  O   O8        1.0  0.40733000000000014  0.09258000000000001  0.61604  1.0000
  O   O9        1.0  0.9686100000000002  0.21753  0.73328  1.0000
  O   O10       1.0  0.8531800000000003  0.28513  0.8248199999999999  1.0000
  O   O11       1.0  0.7897200000000002  0.3387699999999999  0.12818  1.0000
  O   O12       1.0  0.09253  0.40744  0.38396  1.0000
  O   O13       1.0  0.7226500000000002  0.41711  0.28808  1.0000
  O   O14       1.0  0.9156800000000003  0.74169  0.17463  1.0000
  O   O15       1.0  0.7865700000000002  0.67031  0.17848  1.0000
  O   O16       1.0  0.8684600000000002  0.71153  0.85516  1.0000
  O   O17       1.0  0.7470000000000002  0.64229  0.78411  1.0000
  O   O18       1.0  0.4333800000000001  0.7388  0.80969  1.0000
  O   O19       1.0  0.3127500000000001  0.82087  0.82721  1.0000
  O   O20       1.0  0.3744400000000001  0.78031  0.1456  1.0000
  O   O21       1.0  0.25396  0.85186  0.21333999999999997  1.0000
  O   O22       1.0  0.4253  0.2607  0.18184  1.0000
  O   O23       1.0  0.09253  0.59256  0.38396  1.0000
  O   O24       1.0  0.3058000000000001  0.17528  0.17553  1.0000
  O   O25       1.0  0.3710900000000001  0.21811  0.8555600000000001  1.0000
  O   O26       1.0  0.2521500000000001  0.14413  0.78554  1.0000
  O   O27       1.0  0.23843000000000006  0.65155  0.8699899999999999  1.0000
  O   O28       1.0  0.13754  0.74016  0.77577  1.0000
  O   O29       1.0  0.2633500000000001  0.58725  0.17735  1.0000
  O   O30       1.0  0.17201000000000005  0.70145  0.17982  1.0000
  O   O31       1.0  0.23256000000000004  0.35937  0.13511  1.0000
  O   O32       1.0  0.14219000000000007  0.25609  0.22198  1.0000
  O   O33       1.0  0.25469000000000014  0.41084  0.8245100000000001  1.0000
  O   O34       1.0  0.09253  0.59256  0.61604  1.0000
  O   O35       1.0  0.16785000000000005  0.29242  0.8202999999999999  1.0000
  O   O36       1.0  0.76262  0.09223  0.81935  1.0000
  O   O37       1.0  0.6871400000000002  0.21677  0.80655  1.0000
  O   O38       1.0  0.7265900000000002  0.16238  0.12489  1.0000
  O   O39       1.0  0.6152500000000002  0.24002  0.21093999999999996  1.0000
  O   O40       1.0  0.7353500000000002  0.85075  0.13179  1.0000
  O   O41       1.0  0.63199  0.76281  0.22437  1.0000
  O   O42       1.0  0.7571900000000003  0.9045  0.8276399999999999  1.0000
  O   O43       1.0  0.6648000000000001  0.7904799999999997  0.8185399999999999  1.0000
  O   O44       1.0  0.5925300000000002  0.90744  0.61604  1.0000
  O   O45       1.0  0.5925300000000002  0.90744  0.38396  1.0000
  O   O46       1.0  0.5925300000000002  0.09256  0.38396  1.0000
  O   O47       1.0  0.5925300000000002  0.09256  0.61604  1.0000
  O   O48       1.0  0.9073300000000002  0.40742  0.61604  1.0000
  Zn  Zn1       1.0  0.9998900000000002  0.5  0.65496  1.0000
  Zn  Zn2       1.0  0.9998900000000002  0.5  0.34504  1.0000
  Zn  Zn3       1.0  0.4998900000000001  0.0  0.65496  1.0000
  Zn  Zn4       1.0  0.4998900000000001  0.0  0.34504  1.0000
