data_image0
_chemical_formula_structural       Ba2C52H49O24P8NH2NH2NH2NH2CN
_chemical_formula_sum              "Ba2 C53 H57 O24 P8 N5"
_cell_length_a       8.25695
_cell_length_b       12.67592
_cell_length_c       18.68977
_cell_angle_alpha    99.56105
_cell_angle_beta     90.68420000000002
_cell_angle_gamma    98.82505

_space_group_name_H-M_alt    "P 1"
_space_group_IT_number       1

loop_
  _space_group_symop_operation_xyz
  'x, y, z'

loop_
  _atom_site_type_symbol
  _atom_site_label
  _atom_site_symmetry_multiplicity
  _atom_site_fract_x
  _atom_site_fract_y
  _atom_site_fract_z
  _atom_site_occupancy
  Ba  Ba1       1.0  0.85278  0.54834  0.46507  1.0000
  Ba  Ba2       1.0  0.33706  0.4517500000000001  0.53494  1.0000
  C   C1        1.0  0.66984  0.9249  0.27937  1.0000
  C   C2        1.0  0.59391  0.80616  0.26599  1.0000
  C   C3        1.0  0.45857  0.27939  0.31404  1.0000
  C   C4        1.0  0.4274000000000001  0.24324000000000004  0.23228999999999997  1.0000
  C   C5        1.0  0.08518  0.24904000000000007  0.73259  1.0000
  C   C6        1.0  0.07594000000000002  0.22667  0.81005  1.0000
  C   C7        1.0  0.52046  0.176  0.71952  1.0000
  C   C8        1.0  0.4711500000000001  0.08610000000000004  0.76436  1.0000
  C   C9        1.0  0.99946  0.44280000000000014  0.04753  1.0000
  C   C10       1.0  0.9080800000000003  0.38415000000000005  0.09574  1.0000
  C   C11       1.0  0.77563  0.39882000000000006  0.95225  1.0000
  C   C12       1.0  0.19720000000000004  0.83492  0.27086  1.0000
  C   C13       1.0  0.9373500000000001  0.4458700000000001  0.9764699999999998  1.0000
  C   C14       1.0  0.71684  0.40108  0.88274  1.0000
  C   C15       1.0  0.81619  0.44914  0.83313  1.0000
  C   C16       1.0  0.97611  0.50203  0.8566  1.0000
  C   C17       1.0  0.03667999999999999  0.50147  0.9287499999999999  1.0000
  C   C18       1.0  0.7606400000000003  0.4465900000000001  0.76084  1.0000
  C   C19       1.0  0.86728  0.48932  0.71184  1.0000
  C   C20       1.0  0.02287000000000004  0.5457800000000003  0.73412  1.0000
  C   C21       1.0  0.07479  0.55691  0.80829  1.0000
  C   C22       1.0  0.15999  0.49659  0.07077  1.0000
  C   C23       1.0  0.14828000000000002  0.85378  0.19551  1.0000
  C   C24       1.0  0.21774  0.49795  0.14361  1.0000
  C   C25       1.0  0.11521000000000003  0.4474500000000001  0.19299  1.0000
  C   C26       1.0  0.9652  0.38593  0.16617  1.0000
  C   C27       1.0  0.2182600000000001  0.6246700000000001  0.83678  1.0000
  C   C28       1.0  0.27431  0.62763  0.90783  1.0000
  C   C29       1.0  0.19537000000000002  0.55742  0.9524899999999998  1.0000
  C   C30       1.0  0.26356  0.5477500000000001  0.0217  1.0000
  C   C31       1.0  0.4327700000000001  0.58241  0.04373  1.0000
  C   C32       1.0  0.37928000000000006  0.5474400000000001  0.16658  1.0000
  C   C33       1.0  0.48513000000000006  0.58485  0.11528  1.0000
  C   C34       1.0  0.22924  0.7802  0.61102  1.0000
  C   C35       1.0  0.43276000000000003  0.5540500000000002  0.23965999999999998  1.0000
  C   C36       1.0  0.3239  0.51395  0.28922  1.0000
  C   C37       1.0  0.16738000000000003  0.45810000000000006  0.26714  1.0000
  C   C38       1.0  0.77004  0.18014  0.52125  1.0000
  C   C39       1.0  0.43695  0.80361  0.46308  1.0000
  C   C40       1.0  0.40856  0.98158  0.44044000000000005  1.0000
  C   C41       1.0  0.34552000000000005  0.8725600000000002  0.43511000000000005  1.0000
  C   C42       1.0  0.5844  0.8448300000000002  0.50315  1.0000
  C   C43       1.0  0.6487400000000001  0.9574100000000002  0.51  1.0000
  C   C44       1.0  0.55967  0.025699999999999983  0.47703999999999996  1.0000
  C   C45       1.0  0.26547  0.90287  0.62208  1.0000
  C   C46       1.0  0.62113  0.13748000000000002  0.48385  1.0000
  C   C47       1.0  0.86188  0.11401  0.55112  1.0000
  C   C48       1.0  0.7986400000000002  0.004460000000000012  0.54852  1.0000
  C   C49       1.0  0.97163  0.20454000000000003  0.37522  1.0000
  C   C50       1.0  0.03851  0.09854  0.36239  1.0000
  C   C51       1.0  0.67889  0.7325600000000001  0.69433  1.0000
  C   C52       1.0  0.59378  0.76956  0.76387  1.0000
  H   H1        1.0  0.52049  0.7914600000000003  0.31387  1.0000
  H   H2        1.0  0.39556  0.9304100000000001  0.63963  1.0000
  H   H3        1.0  0.24432000000000004  0.9310600000000004  0.57046  1.0000
  H   H4        1.0  0.18338000000000002  0.93881  0.66258  1.0000
  H   H5        1.0  0.8374000000000001  0.1871  0.38005  1.0000
  H   H6        1.0  0.029340000000000012  0.25277  0.42669  1.0000
  H   H7        1.0  0.98192  0.046790000000000005  0.3121  1.0000
  H   H8        1.0  0.013660000000000004  0.05627  0.40931  1.0000
  H   H9        1.0  0.17206  0.11448000000000003  0.35462  1.0000
  H   H10       1.0  0.61526  0.6508  0.66949  1.0000
  H   H11       1.0  0.7371900000000001  0.9443100000000002  0.33283  1.0000
  H   H12       1.0  0.66364  0.84582  0.79467  1.0000
  H   H13       1.0  0.58335  0.7060600000000001  0.79873  1.0000
  H   H14       1.0  0.47047000000000017  0.78613  0.75017  1.0000
  H   H15       1.0  0.5126800000000002  0.78961  0.21632  1.0000
  H   H16       1.0  0.57322  0.9769500000000001  0.28046  1.0000
  H   H17       1.0  0.34410000000000013  0.30286  0.33769  1.0000
  H   H18       1.0  0.55768  0.3507  0.32374  1.0000
  H   H19       1.0  0.33027  0.17059  0.22162  1.0000
  H   H20       1.0  0.38345  0.30917000000000006  0.20891  1.0000
  H   H21       1.0  0.7546300000000002  0.9420999999999999  0.23558999999999997  1.0000
  H   H22       1.0  0.25944  0.86361  0.16287  1.0000
  H   H23       1.0  0.19879  0.30512  0.72735  1.0000
  H   H24       1.0  0.9819  0.29088  0.72178  1.0000
  H   H25       1.0  0.08812000000000002  0.30391000000000007  0.84872  1.0000
  H   H26       1.0  0.95653  0.17667  0.8174  1.0000
  H   H27       1.0  0.1767  0.18343  0.82267  1.0000
  H   H28       1.0  0.4569600000000001  0.15228000000000003  0.66501  1.0000
  H   H29       1.0  0.5266  0.012939999999999985  0.7442  1.0000
  H   H30       1.0  0.33599  0.06295000000000005  0.76219  1.0000
  H   H31       1.0  0.23437  0.75328  0.26656  1.0000
  H   H32       1.0  0.51376  0.11486000000000002  0.82191  1.0000
  H   H33       1.0  0.8253  0.48323  0.65601  1.0000
  H   H34       1.0  0.59092  0.3656200000000001  0.86948  1.0000
  H   H35       1.0  0.88874  0.33811  0.19916  1.0000
  H   H36       1.0  0.2858600000000001  0.67842  0.80505  1.0000
  H   H37       1.0  0.61337  0.6133700000000001  0.12935  1.0000
  H   H38       1.0  0.3649800000000001  0.5210800000000002  0.34525  1.0000
  H   H39       1.0  0.68797  0.36167  0.98635  1.0000
  H   H40       1.0  0.79134  0.33411  0.08067  1.0000
  H   H41       1.0  0.37774  0.6884900000000002  0.9273899999999999  1.0000
  H   H42       1.0  0.30224  0.89883  0.2914  1.0000
  H   H43       1.0  0.33446  0.03145000000000002  0.4179  1.0000
  H   H44       1.0  0.8695300000000002  0.9580400000000002  0.57637  1.0000
  H   H45       1.0  0.81769  0.26544  0.52516  1.0000
  H   H46       1.0  0.38582  0.7188800000000001  0.45904999999999996  1.0000
  H   H47       1.0  0.09270000000000006  0.9289400000000002  0.20003  1.0000
  H   H48       1.0  0.33547  0.7458200000000001  0.58735  1.0000
  H   H49       1.0  0.12217999999999998  0.75391  0.5727  1.0000
  O   O1        1.0  0.8730900000000001  0.4258900000000001  0.32514  1.0000
  O   O2        1.0  0.67642  0.80971  0.64892  1.0000
  O   O3        1.0  0.06671000000000006  0.8443000000000003  0.3176  1.0000
  O   O4        1.0  0.31661  0.57414  0.6749  1.0000
  O   O5        1.0  0.06728999999999997  0.56572  0.58563  1.0000
  O   O6        1.0  0.5302100000000002  0.3729900000000001  0.6312  1.0000
  O   O7        1.0  0.19724000000000003  0.7468800000000001  0.6779  1.0000
  O   O8        1.0  0.61134  0.3662900000000001  0.46362999999999993  1.0000
  O   O9        1.0  0.10855  0.31414  0.5952  1.0000
  O   O10       1.0  0.20347  0.12256  0.55582  1.0000
  O   O11       1.0  0.08175000000000003  0.15088  0.68429  1.0000
  O   O12       1.0  0.12242000000000001  0.43437  0.41438  1.0000
  O   O13       1.0  0.57837  0.6338  0.53638  1.0000
  O   O14       1.0  0.3415100000000001  0.23185000000000008  0.46551000000000003  1.0000
  O   O15       1.0  0.50337  0.19337000000000001  0.34423  1.0000
  O   O16       1.0  0.43579  0.47009  0.75749  1.0000
  O   O17       1.0  0.46769  0.26997  0.75722  1.0000
  O   O18       1.0  0.6595  0.6271000000000001  0.36881  1.0000
  O   O19       1.0  0.7713  0.54312  0.24367  1.0000
  O   O20       1.0  0.0027899999999999956  0.25347  0.31405  1.0000
  O   O21       1.0  0.71893  0.74221  0.25547  1.0000
  O   O22       1.0  0.8482000000000001  0.76819  0.53453  1.0000
  O   O23       1.0  0.08116  0.68595  0.40481  1.0000
  O   O24       1.0  0.01518000000000002  0.8791100000000001  0.45565  1.0000
  P   P1        1.0  0.041040000000000035  0.3947700000000001  0.33633  1.0000
  P   P2        1.0  0.67288  0.75403  0.5561  1.0000
  P   P3        1.0  0.13067000000000004  0.82322  0.40305  1.0000
  P   P4        1.0  0.14867  0.60532  0.66368  1.0000
  P   P5        1.0  0.06401000000000003  0.1746  0.59497  1.0000
  P   P6        1.0  0.6438900000000002  0.6139  0.27486  1.0000
  P   P7        1.0  0.52132  0.23042000000000007  0.43874  1.0000
  P   P8        1.0  0.54984  0.38964  0.72597  1.0000
  N   N1        1.0  0.84769  0.72688  0.7123  1.0000
  H   H50       1.0  0.9067700000000002  0.80382  0.73651  1.0000
  H   H51       1.0  0.89955  0.71052  0.66216  1.0000
  N   N2        1.0  0.57793  0.21912  0.19749  1.0000
  H   H52       1.0  0.55436  0.20444  0.14133  1.0000
  H   H53       1.0  0.60437  0.14666  0.2111  1.0000
  N   N3        1.0  0.69819  0.1907  0.71218  1.0000
  H   H54       1.0  0.72518  0.23152  0.66863  1.0000
  H   H55       1.0  0.73453  0.11515000000000006  0.69588  1.0000
  N   N4        1.0  0.56119  0.5999100000000002  0.99394  1.0000
  H   H56       1.0  0.5302200000000001  0.5544400000000002  0.94243  1.0000
  H   H57       1.0  0.5921900000000002  0.6826600000000002  0.99282  1.0000
  C   C53       1.0  0.03189000000000005  0.7621100000000002  0.15725  1.0000
  N   N5        1.0  0.9404700000000001  0.6899400000000002  0.12664  1.0000
