data_image0
_chemical_formula_structural       C34H6N2O8Zn2OCH3CH3OCH3CH3OCH3OCH3OCH3CH3OCH3CH3OCH3OCH3CH3OCH3
_chemical_formula_sum              "C48 H48 N2 O17 Zn2"
_cell_length_a       14.86718
_cell_length_b       10.739899999999999
_cell_length_c       9.90559
_cell_angle_alpha    91.04853
_cell_angle_beta     89.70204
_cell_angle_gamma    91.29166

_space_group_name_H-M_alt    "P 1"
_space_group_IT_number       1

loop_
  _space_group_symop_operation_xyz
  'x, y, z'

loop_
  _atom_site_type_symbol
  _atom_site_label
  _atom_site_symmetry_multiplicity
  _atom_site_fract_x
  _atom_site_fract_y
  _atom_site_fract_z
  _atom_site_occupancy
  C   C1        1.0  0.4998300000000001  0.26032  0.49855  1.0000
  C   C2        1.0  0.90824  0.61603  0.54987  1.0000
  C   C3        1.0  0.9504900000000001  0.27294  0.53881  1.0000
  C   C4        1.0  0.04448000000000001  0.27141  0.53012  1.0000
  C   C5        1.0  0.09278  0.38582000000000005  0.52432  1.0000
  C   C6        1.0  0.04757000000000001  0.50043  0.53781  1.0000
  C   C7        1.0  0.09685  0.6147  0.54715  1.0000
  C   C8        1.0  0.0527  0.72483  0.58465  1.0000
  C   C9        1.0  0.95827  0.72674  0.5859  1.0000
  C   C10       1.0  0.18585  0.38875  0.50986  1.0000
  C   C11       1.0  0.23211  0.50161  0.5045  1.0000
  C   C12       1.0  0.32731  0.49976999999999994  0.5006  1.0000
  C   C13       1.0  0.18973  0.61499  0.52129  1.0000
  C   C14       1.0  0.5446800000000003  0.06898  0.60221  1.0000
  C   C15       1.0  0.50684  0.1288  0.49348  1.0000
  C   C16       1.0  0.48021000000000014  0.059829999999999994  0.37745  1.0000
  C   C17       1.0  0.47788  0.9312  0.38385  1.0000
  C   C18       1.0  0.50501  0.87203  0.50124  1.0000
  C   C19       1.0  0.54438  0.94173  0.60707  1.0000
  C   C20       1.0  0.5313300000000002  0.9453600000000001  0.76055  1.0000
  C   C21       1.0  0.53248  0.08813  0.75104  1.0000
  C   C22       1.0  0.44607  0.41834  0.06929  1.0000
  C   C23       1.0  0.50056  0.73983  0.50132  1.0000
  C   C24       1.0  0.5644900000000003  0.56457  0.07286  1.0000
  C   C25       1.0  0.56224  0.56709  0.92837  1.0000
  C   C26       1.0  0.4466500000000001  0.4178999999999999  0.92809  1.0000
  C   C27       1.0  0.3468700000000001  0.39228  0.9234  1.0000
  C   C28       1.0  0.34693000000000007  0.39016999999999996  0.07892  1.0000
  C   C29       1.0  0.6729500000000003  0.50187  0.49978999999999996  1.0000
  C   C30       1.0  0.8146700000000002  0.61488  0.52821  1.0000
  C   C31       1.0  0.76908  0.50174  0.5007  1.0000
  C   C32       1.0  0.81262  0.38761  0.49289  1.0000
  C   C33       1.0  0.905  0.3861399999999999  0.52225  1.0000
  C   C34       1.0  0.95347  0.501  0.53746  1.0000
  H   H1        1.0  0.44958  0.87835  0.29936  1.0000
  H   H2        1.0  0.4672500000000001  0.13158  0.77755  1.0000
  H   H3        1.0  0.61064  0.62293  0.8740199999999999  1.0000
  H   H4        1.0  0.3325  0.298  0.87945  1.0000
  H   H5        1.0  0.33428  0.29611  0.12198  1.0000
  H   H6        1.0  0.22392  0.30411  0.50186  1.0000
  N   N1        1.0  0.49939  0.49914  0.1428  1.0000
  N   N2        1.0  0.49939  0.49918  0.8571499999999999  1.0000
  O   O1        1.0  0.50001  0.31679  0.61469  1.0000
  O   O2        1.0  0.5  0.31676  0.38535  1.0000
  O   O3        1.0  0.36785  0.49999  0.61468  1.0000
  O   O4        1.0  0.36784  0.49995  0.38534  1.0000
  O   O5        1.0  0.5  0.68324  0.61465  1.0000
  O   O6        1.0  0.4999900000000001  0.68321  0.38531  1.0000
  O   O7        1.0  0.63216  0.50005  0.61466  1.0000
  O   O8        1.0  0.63215  0.50001  0.38532  1.0000
  Zn  Zn1       1.0  0.50001  0.50002  0.65313  1.0000
  Zn  Zn2       1.0  0.4999900000000001  0.49998000000000004  0.34687  1.0000
  O   O9        1.0  0.7656400000000001  0.72243  0.54214  1.0000
  C   C35       1.0  0.75065  0.7737599999999999  0.41437999999999997  1.0000
  H   H7        1.0  0.6929900000000002  0.72597  0.36423  1.0000
  H   H8        1.0  0.8116800000000001  0.7728099999999999  0.34859  1.0000
  H   H9        1.0  0.7319  0.8724899999999999  0.42933999999999994  1.0000
  C   C36       1.0  0.43994  0.89378  0.8086999999999999  1.0000
  H   H10       1.0  0.42233  0.9364499999999999  0.9080300000000001  1.0000
  H   H11       1.0  0.38566  0.9129700000000001  0.73569  1.0000
  H   H12       1.0  0.44434  0.7922  0.82248  1.0000
  O   O10       1.0  0.6015800000000001  0.9040000000000001  0.84556  1.0000
  C   C37       1.0  0.67273  0.84786  0.77476  1.0000
  H   H13       1.0  0.72172  0.81422  0.84899  1.0000
  H   H14       1.0  0.7085400000000002  0.9159500000000002  0.70944  1.0000
  H   H15       1.0  0.6480200000000003  0.76643  0.71449  1.0000
  C   C38       1.0  0.6135800000000002  0.15746  0.81542  1.0000
  H   H16       1.0  0.6138  0.14282  0.92584  1.0000
  H   H17       1.0  0.67819  0.12525  0.77224  1.0000
  H   H18       1.0  0.6094400000000001  0.25893  0.79846  1.0000
  O   O11       1.0  0.63059  0.62989  0.14372  1.0000
  C   C39       1.0  0.71586  0.58487  0.10522  1.0000
  H   H19       1.0  0.76625  0.61591  0.18119  1.0000
  H   H20       1.0  0.7378800000000002  0.62372  0.00701  1.0000
  H   H21       1.0  0.7170100000000001  0.48106  0.10141000000000001  1.0000
  O   O12       1.0  0.29171  0.48196000000000006  0.86138  1.0000
  C   C40       1.0  0.30927000000000004  0.60838  0.8976799999999999  1.0000
  H   H22       1.0  0.3181800000000001  0.66215  0.80406  1.0000
  H   H23       1.0  0.36876  0.62659  0.9625599999999999  1.0000
  H   H24       1.0  0.24971  0.64532  0.95157  1.0000
  O   O13       1.0  0.29888  0.48728999999999995  0.14178  1.0000
  C   C41       1.0  0.20832  0.44832  0.15873  1.0000
  H   H25       1.0  0.20262  0.36657  0.22575  1.0000
  H   H26       1.0  0.17584000000000005  0.42612999999999995  0.06005  1.0000
  H   H27       1.0  0.17089  0.52546  0.20724  1.0000
  C   C42       1.0  0.76102  0.2705  0.44608999999999993  1.0000
  H   H28       1.0  0.80391  0.2112  0.38057  1.0000
  H   H29       1.0  0.7361300000000001  0.21755999999999998  0.53445  1.0000
  H   H30       1.0  0.7025200000000003  0.29127  0.3822  1.0000
  O   O14       1.0  0.90368  0.16386  0.5682  1.0000
  C   C43       1.0  0.88558  0.16383  0.70828  1.0000
  H   H31       1.0  0.84602  0.24596  0.74107  1.0000
  H   H32       1.0  0.949  0.16007  0.76715  1.0000
  H   H33       1.0  0.8443800000000002  0.07966  0.73183  1.0000
  C   C44       1.0  0.09212000000000002  0.14799  0.52835  1.0000
  H   H34       1.0  0.13756000000000004  0.14359  0.61669  1.0000
  H   H35       1.0  0.04512  0.06659  0.53207  1.0000
  H   H36       1.0  0.13173  0.13779  0.43362  1.0000
  O   O15       1.0  0.24087  0.72447  0.52009  1.0000
  C   C45       1.0  0.24182  0.7705299999999999  0.38765  1.0000
  H   H37       1.0  0.27805  0.86193  0.38851  1.0000
  H   H38       1.0  0.17258  0.7858700000000001  0.34996  1.0000
  H   H39       1.0  0.2783000000000001  0.7073  0.31731  1.0000
  O   O16       1.0  0.10152  0.83316  0.61468  1.0000
  C   C46       1.0  0.12737  0.8311899999999999  0.75155  1.0000
  H   H40       1.0  0.17136  0.75164  0.7715  1.0000
  H   H41       1.0  0.06795  0.8274300000000001  0.8202099999999999  1.0000
  H   H42       1.0  0.16621  0.91809  0.77563  1.0000
  C   C47       1.0  0.9138600000000002  0.8463900000000001  0.63067  1.0000
  H   H43       1.0  0.86358  0.82662  0.71084  1.0000
  H   H44       1.0  0.96115  0.9162  0.67559  1.0000
  H   H45       1.0  0.8832500000000002  0.8923  0.54361  1.0000
  O   O17       1.0  0.44228  0.11652  0.26768  1.0000
  C   C48       1.0  0.50087  0.10478  0.15594  1.0000
  H   H46       1.0  0.5107  0.00571  0.12585  1.0000
  H   H47       1.0  0.56695  0.15198000000000003  0.17672  1.0000
  H   H48       1.0  0.47041  0.1508  0.06852  1.0000
