data_image0
_chemical_formula_structural       Ba2C54H78N4O24P8
_chemical_formula_sum              "Ba2 C54 H78 N4 O24 P8"
_cell_length_a       8.29169
_cell_length_b       16.254660000000005
_cell_length_c       17.29746
_cell_angle_alpha    112.54715
_cell_angle_beta     82.46599
_cell_angle_gamma    96.03506000000002

_symmetry_space_group_name_H-M    'P 1'
_symmetry_Int_Tables_number       1

loop_
  _symmetry_equiv_pos_as_xyz
  'x,y,z'

loop_
  _atom_site_type_symbol
  _atom_site_label
  _atom_site_symmetry_multiplicity
  _atom_site_fract_x
  _atom_site_fract_y
  _atom_site_fract_z
  _atom_site_occupancy
  Ba  Ba1       1.0  0.32586  0.46028  0.5305099999999998  1.0000
  Ba  Ba2       1.0  0.86395  0.53965  0.46946  1.0000
  C   C1        1.0  0.014820000000000038  0.15524999999999983  0.6731999999999998  1.0000
  C   C2        1.0  0.8945999999999998  0.5061599999999998  0.78432  1.0000
  C   C3        1.0  0.8171600000000001  0.5037399999999997  0.8677099999999998  1.0000
  C   C4        1.0  0.46663000000000004  0.2838599999999999  0.71595  1.0000
  C   C5        1.0  0.6568700000000001  0.5180699999999998  0.8916799999999998  1.0000
  C   C6        1.0  0.55842  0.53665  0.8336399999999998  1.0000
  C   C7        1.0  0.6256299999999998  0.53627  0.75949  1.0000
  C   C8        1.0  0.4084  0.53376  0.14574  1.0000
  C   C9        1.0  0.34236  0.54108  0.22634999999999994  1.0000
  C   C10       1.0  0.5673400000000001  0.4664399999999999  0.24104999999999993  1.0000
  C   C11       1.0  0.6344  0.45802  0.15918  1.0000
  C   C12       1.0  0.02981999999999998  0.2454099999999999  0.66402  1.0000
  C   C13       1.0  0.5571699999999999  0.49316999999999994  0.11095  1.0000
  C   C14       1.0  0.57624  0.5210299999999999  0.9753699999999997  1.0000
  C   C15       1.0  0.63548  0.48666  0.02555  1.0000
  C   C16       1.0  0.37455  0.27356  0.79551  1.0000
  C   C17       1.0  0.42316  0.5095  0.2742599999999999  1.0000
  C   C18       1.0  0.39416999999999996  0.7653999999999999  0.52886  1.0000
  C   C19       1.0  0.8078500000000001  0.24546999999999994  0.4791799999999999  1.0000
  C   C20       1.0  0.21821999999999997  0.88844  0.61206  1.0000
  C   C21       1.0  0.24394  0.80075  0.58401  1.0000
  C   C22       1.0  0.5210199999999999  0.8197899999999997  0.5172199999999998  1.0000
  C   C23       1.0  0.17239  0.74506  0.76143  1.0000
  C   C24       1.0  0.51476  0.91951  0.56712  1.0000
  C   C25       1.0  0.33931999999999995  0.9502699999999997  0.58458  1.0000
  C   C26       1.0  0.63794  0.97637  0.53344  1.0000
  C   C27       1.0  0.59668  0.03894999999999995  0.5077199999999998  1.0000
  C   C28       1.0  0.6193  0.26149  0.32162  1.0000
  C   C29       1.0  0.86813  0.0682  0.43942  1.0000
  C   C30       1.0  0.71907  0.09977000000000003  0.48299  1.0000
  C   C31       1.0  0.9854900000000001  0.12259000000000003  0.41264  1.0000
  C   C32       1.0  0.95605  0.21353999999999995  0.4330699999999999  1.0000
  C   C33       1.0  0.68634  0.18852999999999995  0.50021  1.0000
  C   C34       1.0  0.10709000000000002  0.73362  0.84369  1.0000
  C   C35       1.0  0.54805  0.1664  0.2839  1.0000
  C   C36       1.0  0.66517  0.75013  0.73955  1.0000
  C   C37       1.0  0.69997  0.81262  0.83075  1.0000
  C   C38       1.0  0.03855000000000001  0.24236999999999997  0.23731  1.0000
  C   C39       1.0  0.9824599999999999  0.14444  0.21923  1.0000
  C   C40       1.0  0.6547700000000002  0.80356  0.6846899999999998  1.0000
  C   C41       1.0  0.5940599999999998  0.89375  0.86939  1.0000
  C   C42       1.0  0.68562  0.76061  0.88921  1.0000
  C   C43       1.0  0.19833999999999996  0.32824999999999993  0.15974  1.0000
  C   C44       1.0  0.19126000000000007  0.68532  0.9486599999999997  1.0000
  C   C45       1.0  0.73212  0.71018  0.29052  1.0000
  C   C46       1.0  0.40693  0.18716  0.80525  1.0000
  C   C47       1.0  0.51022  0.94448  0.28136  1.0000
  C   C48       1.0  0.07471999999999998  0.96953  0.74649  1.0000
  C   C49       1.0  0.6492  0.28914  0.72065  1.0000
  C   C50       1.0  0.13196000000000002  0.07724999999999997  0.3590099999999999  1.0000
  C   C51       1.0  0.76721  0.72797  0.20966999999999994  1.0000
  C   C52       1.0  0.24312000000000003  0.75777  0.3159399999999999  1.0000
  C   C53       1.0  0.30186  0.82595  0.27615  1.0000
  C   C54       1.0  0.7681600000000001  0.50197  0.7269599999999998  1.0000
  H   H1        1.0  0.15432  0.25499  0.63597  1.0000
  H   H2        1.0  0.90604  0.11861000000000001  0.16576  1.0000
  H   H3        1.0  0.9073499999999998  0.1364999999999999  0.2736699999999999  1.0000
  H   H4        1.0  0.94342  0.24305999999999986  0.6194399999999998  1.0000
  H   H5        1.0  0.89854  0.14629  0.70956  1.0000
  H   H6        1.0  0.24055999999999994  0.6873999999999998  0.72203  1.0000
  H   H7        1.0  0.25173000000000006  0.80716  0.77375  1.0000
  H   H8        1.0  0.03348999999999997  0.79079  0.8841  1.0000
  H   H9        1.0  0.02785999999999993  0.6713199999999998  0.82754  1.0000
  H   H10       1.0  0.11653  0.14880000000000004  0.70553  1.0000
  H   H11       1.0  0.82141  0.6636099999999998  0.28939  1.0000
  H   H12       1.0  0.63346  0.12442999999999997  0.23263999999999996  1.0000
  H   H13       1.0  0.60759  0.67814  0.29229  1.0000
  H   H14       1.0  0.8869699999999999  0.76547  0.20878999999999995  1.0000
  H   H15       1.0  0.7701099999999999  0.6637399999999998  0.15471999999999994  1.0000
  H   H16       1.0  0.67036  0.7670600000000001  0.20451  1.0000
  H   H17       1.0  0.35202  0.72828  0.3237  1.0000
  H   H18       1.0  0.17798000000000005  0.79168  0.37913999999999987  1.0000
  H   H19       1.0  0.19697999999999993  0.8628799999999996  0.2752199999999999  1.0000
  H   H20       1.0  0.43286  0.3479099999999999  0.7158999999999998  1.0000
  H   H21       1.0  0.35287999999999997  0.78956  0.21018  1.0000
  H   H22       1.0  0.74748  0.45213  0.003809999999999999  1.0000
  H   H23       1.0  0.52354  0.13831999999999997  0.3337199999999999  1.0000
  H   H24       1.0  0.4324099999999999  0.55273  0.8536599999999998  1.0000
  H   H25       1.0  0.34135  0.56008  0.11192  1.0000
  H   H26       1.0  0.46173  0.5527499999999999  0.9944399999999998  1.0000
  H   H27       1.0  0.8958400000000001  0.49574  0.9093599999999997  1.0000
  H   H28       1.0  0.74624  0.42419  0.13323999999999994  1.0000
  H   H29       1.0  0.79687  0.4724899999999998  0.6592499999999998  1.0000
  H   H30       1.0  0.36977  0.5151399999999998  0.33647  1.0000
  H   H31       1.0  0.4015499999999999  0.6936099999999997  0.49835  1.0000
  H   H32       1.0  0.7833  0.31447  0.49517  1.0000
  H   H33       1.0  0.76585  0.9694599999999999  0.5356399999999998  1.0000
  H   H34       1.0  0.43286  0.16563  0.25739  1.0000
  H   H35       1.0  0.46932999999999997  0.048619999999999976  0.5082  1.0000
  H   H36       1.0  0.40897000000000006  0.3312999999999999  0.8522999999999997  1.0000
  H   H37       1.0  0.24219999999999997  0.27586  0.79422  1.0000
  H   H38       1.0  0.73474  0.26142999999999994  0.3461799999999999  1.0000
  H   H39       1.0  0.53459  0.29815999999999987  0.3753599999999999  1.0000
  H   H40       1.0  0.54526  0.8434199999999996  0.7053499999999998  1.0000
  H   H41       1.0  0.76488  0.84889  0.68595  1.0000
  H   H42       1.0  0.6420500000000001  0.7559199999999999  0.61969  1.0000
  H   H43       1.0  0.63443  0.94308  0.83968  1.0000
  H   H44       1.0  0.46429  0.8738099999999999  0.8601799999999997  1.0000
  H   H45       1.0  0.7663199999999999  0.70536  0.71182  1.0000
  H   H46       1.0  0.6061900000000001  0.9281099999999999  0.9377799999999997  1.0000
  H   H47       1.0  0.7606700000000002  0.7020099999999999  0.8613199999999998  1.0000
  H   H48       1.0  0.7291100000000005  0.80356  0.95094  1.0000
  H   H49       1.0  0.5581299999999998  0.7365099999999998  0.89993  1.0000
  H   H50       1.0  0.0070700000000000025  0.23553  0.11703  1.0000
  H   H51       1.0  0.31761  0.32646  0.18139999999999995  1.0000
  H   H52       1.0  0.22129  0.3305799999999999  0.09587  1.0000
  H   H53       1.0  0.13651  0.3885099999999999  0.20279  1.0000
  H   H54       1.0  0.29978  0.78899  0.91581  1.0000
  H   H55       1.0  0.29888  0.68464  0.98041  1.0000
  H   H56       1.0  0.8279199999999999  0.8402499999999999  0.8280999999999997  1.0000
  H   H57       1.0  0.1459600000000001  0.61518  0.9157499999999997  1.0000
  H   H58       1.0  0.09501999999999995  0.7220499999999997  0.99705  1.0000
  H   H59       1.0  0.38889000000000007  0.12855999999999995  0.7464499999999997  1.0000
  H   H60       1.0  0.5333600000000001  0.18995  0.82112  1.0000
  H   H61       1.0  0.32177000000000006  0.17848999999999987  0.8570999999999998  1.0000
  H   H62       1.0  0.38546  0.92271  0.38476  1.0000
  H   H63       1.0  0.60511  0.9881100000000002  0.32021  1.0000
  H   H64       1.0  0.42296999999999996  0.9863199999999998  0.27203  1.0000
  H   H65       1.0  0.57093  0.9037  0.21916  1.0000
  H   H66       1.0  0.013319999999999985  0.95671  0.63057  1.0000
  H   H67       1.0  0.93756  0.2865199999999999  0.26539  1.0000
  H   H68       1.0  0.15605000000000002  0.030829999999999906  0.7580599999999997  1.0000
  H   H69       1.0  0.11991000000000002  0.92742  0.77544  1.0000
  H   H70       1.0  0.9507399999999999  0.98885  0.77705  1.0000
  H   H71       1.0  0.68946  0.22109  0.70346  1.0000
  H   H72       1.0  0.71265  0.31864  0.6761  1.0000
  H   H73       1.0  0.6813000000000001  0.3314499999999999  0.7847999999999998  1.0000
  H   H74       1.0  0.21597  0.12162  0.33583  1.0000
  H   H75       1.0  0.19845000000000002  0.05060999999999998  0.39518  1.0000
  H   H76       1.0  0.09201000000000001  0.02033  0.30315  1.0000
  H   H77       1.0  0.019860000000000003  0.10119999999999998  0.6098  1.0000
  H   H78       1.0  0.08959999999999999  0.10309999999999998  0.20220999999999995  1.0000
  N   N1        1.0  0.09719  0.24950999999999998  0.15695  1.0000
  N   N2        1.0  0.23788999999999996  0.7282299999999998  0.88896  1.0000
  N   N3        1.0  0.42568000000000006  0.88786  0.32274999999999987  1.0000
  N   N4        1.0  0.06739999999999997  0.9211399999999998  0.65727  1.0000
  O   O1        1.0  0.35141  0.5595  0.70371  1.0000
  O   O2        1.0  0.8629000000000001  0.8080800000000001  0.49819  1.0000
  O   O3        1.0  0.74635  0.79077  0.36014  1.0000
  O   O4        1.0  0.6223  0.55311  0.60448  1.0000
  O   O5        1.0  0.04053  0.39086  0.43853  1.0000
  O   O6        1.0  0.92794  0.7189599999999998  0.58106  1.0000
  O   O7        1.0  0.04034000000000003  0.74806  0.72075  1.0000
  O   O8        1.0  0.0050300000000000145  0.53242  0.22414999999999993  1.0000
  O   O9        1.0  0.13486  0.69456  0.2640299999999999  1.0000
  O   O10       1.0  0.07785999999999998  0.39530999999999983  0.6233799999999998  1.0000
  O   O11       1.0  0.21079000000000006  0.4483899999999999  0.7658399999999997  1.0000
  O   O12       1.0  0.16484  0.27002  0.29056  1.0000
  O   O13       1.0  0.5160699999999999  0.7012799999999999  0.7397599999999998  1.0000
  O   O14       1.0  0.99564  0.31500999999999996  0.7425999999999999  1.0000
  O   O15       1.0  0.26176  0.28100999999999987  0.41888  1.0000
  O   O16       1.0  0.48839000000000016  0.34743  0.57441  1.0000
  O   O17       1.0  0.35201  0.18849999999999995  0.4931699999999999  1.0000
  O   O18       1.0  0.42122000000000004  0.2115799999999999  0.64332  1.0000
  O   O19       1.0  0.8382999999999999  0.44047  0.29623  1.0000
  O   O20       1.0  0.56738  0.44681000000000004  0.3955  1.0000
  O   O21       1.0  0.11182000000000003  0.60462  0.3766  1.0000
  O   O22       1.0  0.64658  0.29783  0.25899  1.0000
  O   O23       1.0  0.14914999999999995  0.6090599999999998  0.56144  1.0000
  O   O24       1.0  0.7012900000000001  0.65249  0.4255599999999999  1.0000
  P   P1        1.0  0.5335799999999998  0.58501  0.69646  1.0000
  P   P2        1.0  0.09745000000000004  0.29271  0.39750999999999986  1.0000
  P   P3        1.0  0.48760000000000003  0.23362999999999992  0.5517199999999998  1.0000
  P   P4        1.0  0.65611  0.41492  0.30352  1.0000
  P   P5        1.0  0.70793  0.76818  0.45247  1.0000
  P   P6        1.0  0.04350000000000003  0.4178099999999998  0.7306999999999998  1.0000
  P   P7        1.0  0.09775000000000006  0.72126  0.6134599999999998  1.0000
  P   P8        1.0  0.14752  0.59118  0.27118  1.0000
