data_image0
_chemical_formula_structural       O16C8H8O4V4H8C72H24
_chemical_formula_sum              "O20 C80 H40 V4"
_cell_length_a       7.22332
_cell_length_b       12.14028
_cell_length_c       29.09794
_cell_angle_alpha    90.00005
_cell_angle_beta     89.96745
_cell_angle_gamma    90.23178

_symmetry_space_group_name_H-M    'P 1'
_symmetry_Int_Tables_number       1

loop_
  _symmetry_equiv_pos_as_xyz
  'x,y,z'

loop_
  _atom_site_type_symbol
  _atom_site_label
  _atom_site_symmetry_multiplicity
  _atom_site_fract_x
  _atom_site_fract_y
  _atom_site_fract_z
  _atom_site_occupancy
  O   O1        1.0  0.64717  0.84918  0.20122  1.0000
  O   O2        1.0  0.35282999999999987  0.15082  0.79878  1.0000
  O   O3        1.0  0.35282999999999987  0.15082  0.7012200000000001  1.0000
  O   O4        1.0  0.64717  0.84918  0.29878  1.0000
  O   O5        1.0  0.14716999999999994  0.65082  0.29878  1.0000
  O   O6        1.0  0.85283  0.34918000000000005  0.7012200000000001  1.0000
  O   O7        1.0  0.85283  0.34918000000000005  0.79878  1.0000
  O   O8        1.0  0.14716999999999994  0.65082  0.20122  1.0000
  O   O9        1.0  0.31743  0.86221  0.2984500000000001  1.0000
  O   O10       1.0  0.68257  0.13779  0.7015500000000002  1.0000
  O   O11       1.0  0.68257  0.13779  0.7984500000000002  1.0000
  O   O12       1.0  0.31743  0.86221  0.20155000000000006  1.0000
  O   O13       1.0  0.81743  0.63779  0.20155000000000006  1.0000
  O   O14       1.0  0.18257  0.36221  0.7984500000000002  1.0000
  O   O15       1.0  0.18257  0.36221  0.7015500000000002  1.0000
  O   O16       1.0  0.81743  0.63779  0.2984500000000001  1.0000
  C   C1        1.0  0.48601  0.88777  0.31333  1.0000
  C   C2        1.0  0.51399  0.11223  0.68667  1.0000
  C   C3        1.0  0.51391  0.11223  0.81332  1.0000
  C   C4        1.0  0.4860899999999999  0.88777  0.18668  1.0000
  C   C5        1.0  0.9854899999999998  0.61219  0.18666  1.0000
  C   C6        1.0  0.014509999999999997  0.38781  0.81334  1.0000
  C   C7        1.0  0.01459  0.38781  0.68666  1.0000
  C   C8        1.0  0.98541  0.61219  0.31334  1.0000
  H   H1        1.0  0.9574199999999998  0.26094  0.37345000000000006  1.0000
  H   H2        1.0  0.04258  0.73906  0.62655  1.0000
  H   H3        1.0  0.03625  0.7393  0.87338  1.0000
  H   H4        1.0  0.96375  0.2607  0.12662  1.0000
  H   H5        1.0  0.53831  0.23847  0.12685  1.0000
  H   H6        1.0  0.46169  0.76153  0.87315  1.0000
  H   H7        1.0  0.46783  0.7612100000000002  0.62687  1.0000
  H   H8        1.0  0.53217  0.23879  0.37313  1.0000
  O   O17       1.0  0.48063  0.68063  0.25  1.0000
  O   O18       1.0  0.51937  0.31937  0.7500000000000002  1.0000
  O   O19       1.0  0.9806299999999998  0.8193700000000002  0.25  1.0000
  O   O20       1.0  0.01937  0.18063  0.7500000000000002  1.0000
  V   V1        1.0  0.20579999999999996  0.76286  0.25  1.0000
  V   V2        1.0  0.7942  0.23714  0.7500000000000002  1.0000
  V   V3        1.0  0.7058  0.7371400000000001  0.25  1.0000
  V   V4        1.0  0.2941999999999999  0.26286  0.7500000000000002  1.0000
  H   H9        1.0  0.9741999999999998  0.28348  0.53258  1.0000
  H   H10       1.0  0.0258  0.71652  0.46742  1.0000
  H   H11       1.0  0.021159999999999995  0.71676  0.03254  1.0000
  H   H12       1.0  0.97884  0.28324  0.96746  1.0000
  H   H13       1.0  0.53394  0.21634000000000006  0.9676400000000002  1.0000
  H   H14       1.0  0.4660599999999999  0.78366  0.03236  1.0000
  H   H15       1.0  0.47057  0.7834300000000001  0.46765  1.0000
  H   H16       1.0  0.52943  0.21657  0.53235  1.0000
  C   C9        1.0  0.9911199999999998  0.53441  0.35171  1.0000
  C   C10       1.0  0.00888  0.46559000000000006  0.64829  1.0000
  C   C11       1.0  0.008459999999999997  0.46555  0.85171  1.0000
  C   C12       1.0  0.99154  0.53445  0.14829  1.0000
  C   C13       1.0  0.4952699999999999  0.96532  0.14828  1.0000
  C   C14       1.0  0.50474  0.03468  0.85172  1.0000
  C   C15       1.0  0.50515  0.03468  0.64828  1.0000
  C   C16       1.0  0.4948499999999999  0.96532  0.35172  1.0000
  C   C17       1.0  0.9706  0.34834  0.3804400000000001  1.0000
  C   C18       1.0  0.029400000000000003  0.65166  0.6195600000000002  1.0000
  C   C19       1.0  0.02517  0.65179  0.8804  1.0000
  C   C20       1.0  0.9748299999999998  0.34821  0.11960000000000001  1.0000
  C   C21       1.0  0.52411  0.15117  0.11976  1.0000
  C   C22       1.0  0.47589  0.84883  0.8802400000000001  1.0000
  C   C23       1.0  0.4800199999999999  0.84863  0.61977  1.0000
  C   C24       1.0  0.51999  0.15137  0.38023  1.0000
  C   C25       1.0  0.9740499999999999  0.42158000000000007  0.34364  1.0000
  C   C26       1.0  0.025949999999999994  0.57842  0.65636  1.0000
  C   C27       1.0  0.02282  0.57851  0.84361  1.0000
  C   C28       1.0  0.97718  0.42149000000000003  0.15639  1.0000
  C   C29       1.0  0.5134599999999999  0.07801  0.15651000000000007  1.0000
  C   C30       1.0  0.48654  0.9219900000000001  0.84349  1.0000
  C   C31       1.0  0.48956  0.92184  0.65651  1.0000
  C   C32       1.0  0.51043  0.07816  0.34349000000000013  1.0000
  C   C33       1.0  0.0036  0.57436  0.39672  1.0000
  C   C34       1.0  0.9964  0.4256400000000001  0.60328  1.0000
  C   C35       1.0  0.99755  0.42553  0.89674  1.0000
  C   C36       1.0  0.0024500000000000004  0.57447  0.10326  1.0000
  C   C37       1.0  0.4880599999999999  0.92544  0.10319000000000003  1.0000
  C   C38       1.0  0.51194  0.07456  0.89681  1.0000
  C   C39       1.0  0.51089  0.07464  0.60319  1.0000
  C   C40       1.0  0.48910999999999993  0.92536  0.39681000000000005  1.0000
  C   C41       1.0  0.9972599999999999  0.50194  0.43493  1.0000
  C   C42       1.0  0.00274  0.49806  0.56507  1.0000
  C   C43       1.0  0.00253  0.49803000000000003  0.9349300000000003  1.0000
  C   C44       1.0  0.99747  0.50197  0.06507  1.0000
  C   C45       1.0  0.49925  0.99785  0.06506  1.0000
  C   C46       1.0  0.50075  0.00215  0.9349400000000001  1.0000
  C   C47       1.0  0.501  0.00215  0.56506  1.0000
  C   C48       1.0  0.499  0.99785  0.43494  1.0000
  C   C49       1.0  0.98137  0.38734  0.4258  1.0000
  C   C50       1.0  0.018629999999999994  0.61266  0.5742  1.0000
  C   C51       1.0  0.015759999999999993  0.61274  0.9257800000000003  1.0000
  C   C52       1.0  0.9842399999999998  0.38726000000000005  0.07422  1.0000
  C   C53       1.0  0.51719  0.11229  0.07432  1.0000
  C   C54       1.0  0.48281  0.88771  0.9256800000000002  1.0000
  C   C55       1.0  0.4856499999999999  0.88757  0.57433  1.0000
  C   C56       1.0  0.51435  0.11243  0.42567  1.0000
  C   C57       1.0  0.00427  0.53924  0.4816300000000001  1.0000
  C   C58       1.0  0.99573  0.46076  0.51836  1.0000
  C   C59       1.0  0.99654  0.46071  0.9816400000000002  1.0000
  C   C60       1.0  0.0034599999999999995  0.53929  0.01835  1.0000
  C   C61       1.0  0.49374  0.96074  0.01832  1.0000
  C   C62       1.0  0.50626  0.03925  0.98168  1.0000
  C   C63       1.0  0.50549  0.0393  0.51832  1.0000
  C   C64       1.0  0.49451  0.9607  0.4816800000000001  1.0000
  C   C65       1.0  0.98127  0.34769000000000005  0.50715  1.0000
  C   C66       1.0  0.018729999999999993  0.65231  0.4928400000000001  1.0000
  C   C67       1.0  0.015409999999999993  0.65247  0.0071200000000000005  1.0000
  C   C68       1.0  0.98459  0.34753  0.9928800000000001  1.0000
  C   C69       1.0  0.52358  0.15213  0.9930000000000001  1.0000
  C   C70       1.0  0.4764199999999999  0.84787  0.007  1.0000
  C   C71       1.0  0.47967  0.8477000000000001  0.4930100000000001  1.0000
  C   C72       1.0  0.52033  0.1523  0.50699  1.0000
  C   C73       1.0  0.9746799999999998  0.31219  0.46189  1.0000
  C   C74       1.0  0.025319999999999992  0.68781  0.53811  1.0000
  C   C75       1.0  0.02101  0.68797  0.96185  1.0000
  C   C76       1.0  0.97898  0.31203  0.03815  1.0000
  C   C77       1.0  0.52857  0.18744000000000002  0.03831  1.0000
  C   C78       1.0  0.47143  0.81256  0.96169  1.0000
  C   C79       1.0  0.4756899999999999  0.81235  0.53832  1.0000
  C   C80       1.0  0.52431  0.18765000000000004  0.4616800000000001  1.0000
  H   H17       1.0  0.9629199999999998  0.22460000000000002  0.45507  1.0000
  H   H18       1.0  0.03707999999999999  0.7754  0.54493  1.0000
  H   H19       1.0  0.0308  0.77566  0.95501  1.0000
  H   H20       1.0  0.9691999999999997  0.22434  0.04499000000000001  1.0000
  H   H21       1.0  0.54217  0.27491  0.04521  1.0000
  H   H22       1.0  0.4578299999999999  0.72509  0.95479  1.0000
  H   H23       1.0  0.4640399999999999  0.72478  0.54523  1.0000
  H   H24       1.0  0.53596  0.27522  0.45477  1.0000
  H   H25       1.0  0.037339999999999984  0.60963  0.6911400000000002  1.0000
  H   H26       1.0  0.9626599999999998  0.39037  0.30887  1.0000
  H   H27       1.0  0.96715  0.39021000000000006  0.19118000000000002  1.0000
  H   H28       1.0  0.03286  0.60979  0.80882  1.0000
  H   H29       1.0  0.48039  0.89082  0.8086300000000002  1.0000
  H   H30       1.0  0.51961  0.10918  0.19137  1.0000
  H   H31       1.0  0.51533  0.10941  0.3086200000000001  1.0000
  H   H32       1.0  0.48467  0.89059  0.6913800000000002  1.0000
  H   H33       1.0  0.98507  0.33762  0.5995600000000002  1.0000
  H   H34       1.0  0.01493  0.66238  0.40044000000000013  1.0000
  H   H35       1.0  0.011799999999999996  0.6625700000000001  0.09952000000000003  1.0000
  H   H36       1.0  0.9882  0.33743  0.9004800000000002  1.0000
  H   H37       1.0  0.52565  0.16245  0.90061  1.0000
  H   H38       1.0  0.47435  0.83756  0.09939000000000002  1.0000
  H   H39       1.0  0.4772699999999999  0.83737  0.4006200000000001  1.0000
  H   H40       1.0  0.52273  0.16262  0.59938  1.0000
