data_image0
_chemical_formula_structural       C32H6N4O12Zn2H2OCH2CH3OCH2CH3OCH2CH3OCH2CH7
_chemical_formula_sum              "C40 H32 N4 O16 Zn2"
_cell_length_a       7.75831
_cell_length_b       8.54708
_cell_length_c       23.357590000000002
_cell_angle_alpha    91.02391
_cell_angle_beta     85.68426
_cell_angle_gamma    94.15615

_space_group_name_H-M_alt    "P 1"
_space_group_IT_number       1

loop_
  _space_group_symop_operation_xyz
  'x, y, z'

loop_
  _atom_site_type_symbol
  _atom_site_label
  _atom_site_symmetry_multiplicity
  _atom_site_fract_x
  _atom_site_fract_y
  _atom_site_fract_z
  _atom_site_occupancy
  C   C1        1.0  0.5461800000000002  0.79487  0.49851  1.0000
  C   C2        1.0  0.45382  0.20513  0.50152  1.0000
  C   C3        1.0  0.6385899999999995  0.45728999999999986  0.7602  1.0000
  C   C4        1.0  0.6273599999999999  0.54344  0.23148000000000002  1.0000
  C   C5        1.0  0.63699  0.4467299999999999  0.7002599999999999  1.0000
  C   C6        1.0  0.6357599999999998  0.54382  0.29162  1.0000
  C   C7        1.0  0.50748  0.5149  0.67251  1.0000
  C   C8        1.0  0.49012  0.49444  0.32746  1.0000
  C   C9        1.0  0.38084999999999997  0.59569  0.70425  1.0000
  C   C10       1.0  0.33546  0.44241  0.30412  1.0000
  C   C11       1.0  0.38067  0.60494  0.76341  1.0000
  C   C12       1.0  0.32454999999999995  0.44374999999999987  0.24541  1.0000
  C   C13       1.0  0.50635  0.5333  0.79122  1.0000
  C   C14       1.0  0.4665399999999999  0.49884  0.20902000000000004  1.0000
  C   C15       1.0  0.5703000000000003  0.95871  0.49767  1.0000
  C   C16       1.0  0.42971  0.0413  0.5024  1.0000
  C   C17       1.0  0.5022999999999997  0.50239  0.61055  1.0000
  C   C18       1.0  0.4976  0.49874000000000007  0.3894500000000001  1.0000
  C   C19       1.0  0.38307  0.38253  0.11864  1.0000
  C   C20       1.0  0.567  0.65602  0.88141  1.0000
  C   C21       1.0  0.49583999999999995  0.64966  0.12181000000000002  1.0000
  C   C22       1.0  0.40165  0.40896999999999994  0.87919  1.0000
  C   C23       1.0  0.51075  0.6557  0.06212  1.0000
  C   C24       1.0  0.38308  0.40534  0.9389800000000001  1.0000
  C   C25       1.0  0.44442  0.52641  0.03055  1.0000
  C   C26       1.0  0.45794999999999997  0.53122  0.97038  1.0000
  C   C27       1.0  0.36785  0.39136  0.05918  1.0000
  C   C28       1.0  0.54978  0.65999  0.9416700000000001  1.0000
  C   C29       1.0  0.59764  0.78497  0.03382  1.0000
  C   C30       1.0  0.29203999999999997  0.27845  0.9675500000000001  1.0000
  C   C31       1.0  0.62093  0.78744  0.97389  1.0000
  C   C32       1.0  0.28587  0.26729  0.02781  1.0000
  H   H1        1.0  0.28097  0.65038  0.68339  1.0000
  H   H2        1.0  0.22254999999999994  0.40113999999999994  0.3313  1.0000
  H   H3        1.0  0.28016  0.66418  0.7879700000000001  1.0000
  H   H4        1.0  0.20439  0.40269  0.22809  1.0000
  H   H5        1.0  0.013599999999999998  0.38255  0.45681  1.0000
  H   H6        1.0  0.9864099999999999  0.6174699999999997  0.54319  1.0000
  N   N1        1.0  0.4465  0.51079  0.14864  1.0000
  N   N2        1.0  0.49351  0.53194  0.85216  1.0000
  N   N3        1.0  0.95033  0.45795  0.48456000000000005  1.0000
  N   N4        1.0  0.049670000000000006  0.54205  0.51544  1.0000
  O   O1        1.0  0.38925  0.73857  0.50379  1.0000
  O   O2        1.0  0.61075  0.26142999999999994  0.49621  1.0000
  O   O3        1.0  0.6783899999999999  0.71162  0.49389000000000005  1.0000
  O   O4        1.0  0.32161  0.28838  0.50611  1.0000
  O   O5        1.0  0.3553999999999999  0.5135199999999998  0.58879  1.0000
  O   O6        1.0  0.6446  0.4864800000000001  0.41121  1.0000
  O   O7        1.0  0.64455  0.48656999999999995  0.5789  1.0000
  O   O8        1.0  0.35545  0.51343  0.4211  1.0000
  O   O9        1.0  0.34143  0.24558  0.14589  1.0000
  O   O10       1.0  0.6544999999999995  0.77472  0.85188  1.0000
  O   O11       1.0  0.53327  0.78079  0.15292  1.0000
  O   O12       1.0  0.33002000000000004  0.29014  0.848  1.0000
  Zn  Zn1       1.0  0.30692999999999987  0.518  0.50661  1.0000
  Zn  Zn2       1.0  0.69307  0.482  0.49339  1.0000
  H   H7        1.0  0.65712  0.88063  0.05819  1.0000
  H   H8        1.0  0.22738  0.18783  0.94246  1.0000
  O   O13       1.0  0.7327599999999997  0.9028999999999999  0.9476700000000001  1.0000
  C   C33       1.0  0.6534  0.04656  0.94957  1.0000
  H   H9        1.0  0.62428  0.08715  0.99458  1.0000
  H   H10       1.0  0.5319199999999997  0.03537  0.9268  1.0000
  C   C34       1.0  0.7768299999999999  0.17077  0.91952  1.0000
  H   H11       1.0  0.7176299999999999  0.28516  0.92091  1.0000
  H   H12       1.0  0.89946  0.18471  0.94127  1.0000
  H   H13       1.0  0.80586  0.13587  0.874  1.0000
  O   O14       1.0  0.18703  0.14803  0.05801  1.0000
  C   C35       1.0  0.17939  0.00232  0.02831  1.0000
  H   H14       1.0  0.30781  0.9764299999999999  0.00733  1.0000
  H   H15       1.0  0.08129  0.0008699999999999997  0.99596  1.0000
  C   C36       1.0  0.12292999999999994  0.8722399999999998  0.07071  1.0000
  H   H16       1.0  0.99141  0.89033  0.09082  1.0000
  H   H17       1.0  0.11976  0.75677  0.04808  1.0000
  H   H18       1.0  0.21547999999999995  0.8719499999999998  0.10471  1.0000
  O   O15       1.0  0.75358  0.37885999999999986  0.78997  1.0000
  C   C37       1.0  0.92824  0.42353  0.77172  1.0000
  H   H19       1.0  0.9942800000000002  0.46999  0.80971  1.0000
  H   H20       1.0  0.9461999999999999  0.51781  0.7388900000000002  1.0000
  C   C38       1.0  0.018250000000000002  0.2800299999999999  0.74895  1.0000
  H   H21       1.0  0.95548  0.22989  0.71092  1.0000
  H   H22       1.0  0.011030000000000003  0.18945  0.78271  1.0000
  H   H23       1.0  0.15658  0.3132899999999999  0.73627  1.0000
  O   O16       1.0  0.7642599999999998  0.59711  0.19286  1.0000
  C   C39       1.0  0.93122  0.58197  0.21137  1.0000
  H   H24       1.0  0.014559999999999986  0.5451299999999998  0.17348  1.0000
  H   H25       1.0  0.93555  0.48926  0.24391  1.0000
  C   C40       1.0  0.008769999999999974  0.7402999999999997  0.23209000000000002  1.0000
  H   H26       1.0  0.14242  0.72854  0.24456  1.0000
  H   H27       1.0  0.92984  0.78495  0.26958  1.0000
  H   H28       1.0  0.013899999999999975  0.8272399999999998  0.19717999999999997  1.0000
  H   H29       1.0  0.73245  0.38168  0.67567  1.0000
  H   H30       1.0  0.75212  0.5865  0.31124  1.0000
  H   H31       1.0  0.70272  0.010720000000000002  0.49317  1.0000
  H   H32       1.0  0.2972900000000001  0.98928  0.50691  1.0000
