data_image0
_chemical_formula_structural       C42H16N4O22Zn2
_chemical_formula_sum              "C42 H16 N4 O22 Zn2"
_cell_length_a       7.87591
_cell_length_b       8.54016
_cell_length_c       23.40225
_cell_angle_alpha    93.13196
_cell_angle_beta     84.63740999999999
_cell_angle_gamma    93.46724

_space_group_name_H-M_alt    "P 1"
_space_group_IT_number       1

loop_
  _space_group_symop_operation_xyz
  'x, y, z'

loop_
  _atom_site_type_symbol
  _atom_site_label
  _atom_site_symmetry_multiplicity
  _atom_site_fract_x
  _atom_site_fract_y
  _atom_site_fract_z
  _atom_site_occupancy
  C   C1        1.0  0.5451600000000002  0.79427  0.4989700000000001  1.0000
  C   C2        1.0  0.44943  0.36029  0.29734  1.0000
  C   C3        1.0  0.5481000000000001  0.6411899999999999  0.7619800000000001  1.0000
  C   C4        1.0  0.4507400000000001  0.36229  0.23773  1.0000
  C   C5        1.0  0.50277  0.50349  0.7906299999999999  1.0000
  C   C6        1.0  0.49573000000000006  0.50071  0.20948999999999998  1.0000
  C   C7        1.0  0.56893  0.9578499999999999  0.49815  1.0000
  C   C8        1.0  0.43107  0.042169999999999985  0.50195  1.0000
  C   C9        1.0  0.50026  0.50042  0.60999  1.0000
  C   C10       1.0  0.49975  0.49966999999999995  0.39001  1.0000
  C   C11       1.0  0.3505700000000001  0.45606  0.1235  1.0000
  C   C12       1.0  0.4548400000000002  0.20573  0.50107  1.0000
  C   C13       1.0  0.64709  0.55018  0.87672  1.0000
  C   C14       1.0  0.64344  0.54644  0.11671  1.0000
  C   C15       1.0  0.35427000000000014  0.4596299999999999  0.88343  1.0000
  C   C16       1.0  0.64359  0.56376  0.057240000000000006  1.0000
  C   C17       1.0  0.3537500000000002  0.44298  0.94296  1.0000
  C   C18       1.0  0.4982700000000001  0.5028  0.030120000000000004  1.0000
  C   C19       1.0  0.49899000000000016  0.50407  0.97009  1.0000
  C   C20       1.0  0.35231  0.4404  0.06326  1.0000
  C   C21       1.0  0.64501  0.56638  0.93695  1.0000
  C   C22       1.0  0.7833800000000002  0.63938  0.02474  1.0000
  C   C23       1.0  0.4573200000000002  0.36465999999999993  0.7600499999999999  1.0000
  C   C24       1.0  0.21381999999999998  0.36760999999999994  0.97548  1.0000
  C   C25       1.0  0.7837300000000003  0.64134  0.9644300000000001  1.0000
  C   C26       1.0  0.21346000000000004  0.36564  0.0358  1.0000
  C   C27       1.0  0.9156900000000002  0.73561  0.05446  1.0000
  C   C28       1.0  0.08141000000000001  0.27146  0.94579  1.0000
  C   C29       1.0  0.9156700000000001  0.7404  0.93112  1.0000
  C   C30       1.0  0.08147  0.26656  0.06909  1.0000
  C   C31       1.0  0.3995300000000003  0.21358  0.66928  1.0000
  C   C32       1.0  0.6008700000000001  0.78766  0.33148  1.0000
  C   C33       1.0  0.60188  0.7893399999999998  0.67269  1.0000
  C   C34       1.0  0.5417  0.63878  0.24042  1.0000
  C   C35       1.0  0.39803000000000005  0.21199  0.32655  1.0000
  C   C36       1.0  0.015499999999999991  0.34328  0.44354  1.0000
  C   C37       1.0  0.9845000000000002  0.65672  0.55646  1.0000
  C   C38       1.0  0.45321  0.36206000000000005  0.70058  1.0000
  C   C39       1.0  0.5466300000000002  0.63993  0.29983  1.0000
  C   C40       1.0  0.5011  0.5014  0.67177  1.0000
  C   C41       1.0  0.49898000000000003  0.49989  0.32825  1.0000
  C   C42       1.0  0.5502  0.64173  0.70232  1.0000
  H   H1        1.0  0.87676  0.82464  0.08716  1.0000
  H   H2        1.0  0.40909  0.20398  0.37212000000000006  1.0000
  H   H3        1.0  0.5811900000000002  0.74782  0.78672  1.0000
  H   H4        1.0  0.41726000000000013  0.25625  0.21271  1.0000
  H   H5        1.0  0.69946  0.008250000000000009  0.49425  1.0000
  H   H6        1.0  0.30054  0.9917699999999999  0.50585  1.0000
  H   H7        1.0  0.14719  0.31989  0.43644  1.0000
  H   H8        1.0  0.85281  0.6801100000000001  0.56356  1.0000
  H   H9        1.0  0.12016999999999999  0.18164  0.91338  1.0000
  H   H10       1.0  0.8762099999999999  0.82619  0.9031900000000002  1.0000
  H   H11       1.0  0.12088000000000002  0.18116  0.09718  1.0000
  H   H12       1.0  0.42438000000000003  0.25897  0.7832  1.0000
  H   H13       1.0  0.57442  0.74503  0.21758000000000002  1.0000
  H   H14       1.0  0.4067000000000002  0.20546000000000003  0.6228  1.0000
  H   H15       1.0  0.59482  0.79457  0.37793  1.0000
  H   H16       1.0  0.5909700000000001  0.79639  0.62708  1.0000
  N   N1        1.0  0.49656000000000006  0.50087  0.14839  1.0000
  N   N2        1.0  0.5013400000000001  0.50478  0.85177  1.0000
  N   N3        1.0  0.9503300000000003  0.45794999999999997  0.48456  1.0000
  N   N4        1.0  0.049670000000000054  0.54205  0.51544  1.0000
  O   O1        1.0  0.38925  0.73857  0.50379  1.0000
  O   O2        1.0  0.79377  0.57519  0.84298  1.0000
  O   O3        1.0  0.7889400000000002  0.5712  0.14292  1.0000
  O   O4        1.0  0.20898  0.4345  0.85711  1.0000
  O   O5        1.0  0.06696000000000003  0.7111199999999999  0.04487  1.0000
  O   O6        1.0  0.9303  0.29688  0.95509  1.0000
  O   O7        1.0  0.06768000000000003  0.72237  0.93249  1.0000
  O   O8        1.0  0.9294400000000003  0.2840099999999999  0.06746  1.0000
  O   O9        1.0  0.34514000000000006  0.09801  0.69521  1.0000
  O   O10       1.0  0.65451  0.9039599999999999  0.30585  1.0000
  O   O11       1.0  0.65833  0.90552  0.69899  1.0000
  O   O12       1.0  0.61075  0.26143  0.49621  1.0000
  O   O13       1.0  0.34167  0.09629999999999997  0.29996  1.0000
  O   O14       1.0  0.9172  0.26584  0.41449  1.0000
  O   O15       1.0  0.0828  0.7341399999999999  0.58552  1.0000
  O   O16       1.0  0.6783900000000003  0.71162  0.49389  1.0000
  O   O17       1.0  0.32161  0.28838  0.50611  1.0000
  O   O18       1.0  0.3554  0.51352  0.58879  1.0000
  O   O19       1.0  0.6445999999999998  0.48648  0.41121  1.0000
  O   O20       1.0  0.6445500000000004  0.48657000000000006  0.5789  1.0000
  O   O21       1.0  0.35545  0.51343  0.4211  1.0000
  O   O22       1.0  0.20401999999999998  0.43101  0.15732  1.0000
  Zn  Zn1       1.0  0.3069300000000001  0.518  0.50661  1.0000
  Zn  Zn2       1.0  0.6930699999999999  0.482  0.49339  1.0000
