data_image0
_chemical_formula_structural       C54H44N4O12Zn2
_chemical_formula_sum              "C54 H44 N4 O12 Zn2"
_cell_length_a       7.73479
_cell_length_b       8.55977
_cell_length_c       27.52168
_cell_angle_alpha    91.58217
_cell_angle_beta     87.27556
_cell_angle_gamma    93.9265

_symmetry_space_group_name_H-M    'P 1'
_symmetry_Int_Tables_number       1

loop_
  _symmetry_equiv_pos_as_xyz
  'x,y,z'

loop_
  _atom_site_type_symbol
  _atom_site_label
  _atom_site_symmetry_multiplicity
  _atom_site_fract_x
  _atom_site_fract_y
  _atom_site_fract_z
  _atom_site_occupancy
  C   C1        1.0  0.54599  0.79483  0.4987900000000001  1.0000
  C   C2        1.0  0.51838  0.7450899999999999  0.13373  1.0000
  C   C3        1.0  0.5173699999999998  0.52795  0.6472600000000002  1.0000
  C   C4        1.0  0.4771199999999999  0.48730999999999997  0.35266000000000003  1.0000
  C   C5        1.0  0.527  0.76619  0.029920000000000006  1.0000
  C   C6        1.0  0.34497  0.52327  0.9785400000000002  1.0000
  C   C7        1.0  0.29948000000000013  0.55198  0.027780000000000003  1.0000
  C   C8        1.0  0.5358599999999999  0.76655  0.9774300000000002  1.0000
  C   C9        1.0  0.40816  0.65814  0.05437000000000001  1.0000
  C   C10       1.0  0.4536  0.63382  0.9526500000000002  1.0000
  C   C11       1.0  0.6366099999999998  0.86271  0.059350000000000014  1.0000
  C   C12       1.0  0.45401  0.20517  0.50124  1.0000
  C   C13       1.0  0.29736999999999997  0.37823  0.95639  1.0000
  C   C14       1.0  0.6168599999999999  0.86925  0.11017000000000003  1.0000
  C   C15       1.0  0.3229399999999999  0.34911  0.90647  1.0000
  C   C16       1.0  0.5057999999999998  0.50693  0.59415  1.0000
  C   C17       1.0  0.49331999999999976  0.49194  0.40584000000000003  1.0000
  C   C18       1.0  0.62347  0.88801  0.9481800000000002  1.0000
  C   C19       1.0  0.15839999999999999  0.46865  0.0527  1.0000
  C   C20       1.0  0.5701600000000002  0.9584300000000001  0.4980700000000001  1.0000
  C   C21       1.0  0.42985  0.04157000000000002  0.5020100000000001  1.0000
  C   C22       1.0  0.57995  0.71258  0.8236700000000002  1.0000
  C   C23       1.0  0.47803999999999996  0.61042  0.9017900000000002  1.0000
  C   C24       1.0  0.32156  0.49393999999999993  0.17659000000000005  1.0000
  C   C25       1.0  0.43434  0.45815  0.82691  1.0000
  C   C26       1.0  0.53472  0.70786  0.18311  1.0000
  C   C27       1.0  0.3598799999999999  0.53054  0.72538  1.0000
  C   C28       1.0  0.61533  0.53262  0.27288  1.0000
  C   C29       1.0  0.36257  0.50481  0.6755800000000002  1.0000
  C   C30       1.0  0.62767  0.50963  0.32241  1.0000
  C   C31       1.0  0.67367  0.58013  0.6700800000000002  1.0000
  C   C32       1.0  0.31221  0.47629000000000005  0.3314700000000001  1.0000
  C   C33       1.0  0.66994  0.59177  0.72124  1.0000
  C   C34       1.0  0.40703  0.64562  0.10560000000000003  1.0000
  C   C35       1.0  0.30298  0.52669  0.28395  1.0000
  C   C36       1.0  0.5139099999999999  0.56926  0.7487500000000002  1.0000
  C   C37       1.0  0.45283  0.54937  0.25378  1.0000
  C   C38       1.0  0.83929  0.6272399999999998  0.6401600000000001  1.0000
  C   C39       1.0  0.9795400000000001  0.72428  0.66728  1.0000
  C   C40       1.0  0.14641999999999997  0.40824  0.3572800000000001  1.0000
  C   C41       1.0  0.04340999999999997  0.28854  0.32562000000000013  1.0000
  C   C42       1.0  0.69959  0.013190000000000002  0.13624000000000003  1.0000
  C   C43       1.0  0.64424  0.16565  0.11573  1.0000
  C   C44       1.0  0.25553  0.19086  0.8842900000000001  1.0000
  C   C45       1.0  0.5697699999999998  0.72756  0.8744800000000001  1.0000
  C   C46       1.0  0.19122  0.06253  0.91978  1.0000
  C   C47       1.0  0.6845699999999999  0.050350000000000006  0.9683400000000002  1.0000
  C   C48       1.0  0.70148  0.18497  0.9324800000000002  1.0000
  C   C49       1.0  0.99108  0.4136099999999999  0.028740000000000005  1.0000
  C   C50       1.0  0.839  0.50216  0.04992  1.0000
  C   C51       1.0  0.29907  0.52745  0.12825  1.0000
  C   C52       1.0  0.6433099999999998  0.86144  0.8976900000000001  1.0000
  C   C53       1.0  0.16860999999999995  0.44655  0.10235000000000002  1.0000
  C   C54       1.0  0.40995999999999977  0.47053  0.87811  1.0000
  H   H1        1.0  0.012099999999999977  0.37879  0.4646000000000001  1.0000
  H   H2        1.0  0.23774999999999993  0.51526  0.7461900000000002  1.0000
  H   H3        1.0  0.7465599999999998  0.92989  0.04470000000000001  1.0000
  H   H4        1.0  0.2414799999999999  0.28612  0.9792400000000002  1.0000
  H   H5        1.0  0.7025199999999998  0.009890000000000005  0.49430000000000013  1.0000
  H   H6        1.0  0.29749999999999993  0.9901100000000002  0.5057900000000001  1.0000
  H   H7        1.0  0.92559  0.83016  0.6847000000000002  1.0000
  H   H8        1.0  0.03449999999999996  0.65361  0.6951600000000002  1.0000
  H   H9        1.0  0.08685999999999999  0.76243  0.6411  1.0000
  H   H10       1.0  0.89599  0.52018  0.6244400000000002  1.0000
  H   H11       1.0  0.80516  0.7015599999999999  0.6100300000000002  1.0000
  H   H12       1.0  0.9877699999999998  0.62081  0.5355500000000001  1.0000
  H   H13       1.0  0.9851  0.34564  0.29524  1.0000
  H   H14       1.0  0.12856999999999993  0.19767  0.31069000000000013  1.0000
  H   H15       1.0  0.93579  0.23030999999999993  0.34807  1.0000
  H   H16       1.0  0.17626999999999995  0.34198  0.38946  1.0000
  H   H17       1.0  0.06336  0.50445  0.36906  1.0000
  H   H18       1.0  0.69734  0.18195  0.07798  1.0000
  H   H19       1.0  0.50046  0.16539  0.11622  1.0000
  H   H20       1.0  0.6940499999999997  0.26656  0.13847  1.0000
  H   H21       1.0  0.65908  0.02109  0.17513000000000006  1.0000
  H   H22       1.0  0.84318  0.011300000000000001  0.13288000000000003  1.0000
  H   H23       1.0  0.7870499999999996  0.61929  0.74048  1.0000
  H   H24       1.0  0.07687999999999999  0.09814000000000002  0.9418700000000002  1.0000
  H   H25       1.0  0.29555  0.036180000000000004  0.9440300000000001  1.0000
  H   H26       1.0  0.15223  0.95363  0.8990500000000001  1.0000
  H   H27       1.0  0.14774  0.21118000000000003  0.8604200000000002  1.0000
  H   H28       1.0  0.36117999999999995  0.13877  0.8620100000000003  1.0000
  H   H29       1.0  0.82251  0.18118000000000004  0.9092900000000003  1.0000
  H   H30       1.0  0.59096  0.1787  0.90877  1.0000
  H   H31       1.0  0.7056300000000001  0.29912  0.9527  1.0000
  H   H32       1.0  0.5909399999999999  0.08570000000000003  0.9978000000000002  1.0000
  H   H33       1.0  0.81604  0.04525000000000002  0.9820700000000002  1.0000
  H   H34       1.0  0.17773999999999995  0.5410099999999999  0.2693400000000001  1.0000
  H   H35       1.0  0.81826  0.4843199999999999  0.08959000000000002  1.0000
  H   H36       1.0  0.71855  0.4604299999999999  0.031810000000000005  1.0000
  H   H37       1.0  0.86513  0.62915  0.04352000000000002  1.0000
  H   H38       1.0  0.99758  0.4357899999999999  0.9892000000000001  1.0000
  H   H39       1.0  0.9641599999999998  0.28579  0.033790000000000014  1.0000
  H   H40       1.0  0.71602  0.94761  0.8755600000000001  1.0000
  H   H41       1.0  0.0713  0.36935  0.12083000000000003  1.0000
  H   H42       1.0  0.75508  0.51238  0.33716  1.0000
  H   H43       1.0  0.24166000000000004  0.46752  0.65911  1.0000
  H   H44       1.0  0.7328299999999998  0.54358  0.24988000000000005  1.0000
  N   N1        1.0  0.5112999999999998  0.58024  0.80102  1.0000
  N   N2        1.0  0.43726  0.5840599999999999  0.20331000000000005  1.0000
  N   N3        1.0  0.95032  0.45796  0.4868800000000001  1.0000
  N   N4        1.0  0.04968  0.54204  0.51312  1.0000
  O   O1        1.0  0.38925  0.73857  0.5032200000000001  1.0000
  O   O2        1.0  0.23254999999999998  0.36796  0.19625000000000006  1.0000
  O   O3        1.0  0.6524199999999998  0.78844  0.21023  1.0000
  O   O4        1.0  0.3814899999999999  0.3263499999999999  0.80244  1.0000
  O   O5        1.0  0.61075  0.26143  0.49678  1.0000
  O   O6        1.0  0.6783899999999999  0.71163  0.4948100000000001  1.0000
  O   O7        1.0  0.32160999999999995  0.28837  0.50519  1.0000
  O   O8        1.0  0.35544  0.51344  0.57545  1.0000
  O   O9        1.0  0.6445599999999999  0.48656  0.4245500000000001  1.0000
  O   O10       1.0  0.6445899999999998  0.4865  0.56704  1.0000
  O   O11       1.0  0.35540999999999984  0.5135  0.4329600000000001  1.0000
  O   O12       1.0  0.6535299999999998  0.83157  0.79697  1.0000
  Zn  Zn1       1.0  0.30694  0.5179899999999998  0.50562  1.0000
  Zn  Zn2       1.0  0.69306  0.48201  0.4943800000000001  1.0000
