data_image0
_chemical_formula_structural       C20H6N2O8Zn2OCH2CH2CH3OCH2CH2CH3OCH2CH2CH3OCH2CH2CH3CHOCHO2CH2CH2CH3OCH2CH2CH3
_chemical_formula_sum              "C40 H50 N2 O16 Zn2"
_cell_length_a       10.05638
_cell_length_b       11.011250000000002
_cell_length_c       12.93964
_cell_angle_alpha    91.00321
_cell_angle_beta     92.24452999999998
_cell_angle_gamma    95.49907

_space_group_name_H-M_alt    "P 1"
_space_group_IT_number       1

loop_
  _space_group_symop_operation_xyz
  'x, y, z'

loop_
  _atom_site_type_symbol
  _atom_site_label
  _atom_site_symmetry_multiplicity
  _atom_site_fract_x
  _atom_site_fract_y
  _atom_site_fract_z
  _atom_site_occupancy
  C   C1        1.0  0.44278  0.26781  0.49785  1.0000
  C   C2        1.0  0.55691  0.73176  0.5031  1.0000
  C   C3        1.0  0.07164999999999999  0.49076  0.5086699999999998  1.0000
  C   C4        1.0  0.92792  0.5057  0.4886  1.0000
  C   C5        1.0  0.47374  0.49803  0.6990099999999998  1.0000
  C   C6        1.0  0.52412  0.4908399999999998  0.30149999999999993  1.0000
  C   C7        1.0  0.53757  0.4713499999999999  0.19204  1.0000
  C   C8        1.0  0.45663  0.48231999999999997  0.80948  1.0000
  C   C9        1.0  0.31729  0.45676  0.95707  1.0000
  C   C10       1.0  0.67465  0.47933999999999993  0.044029999999999986  1.0000
  C   C11       1.0  0.32937  0.48082  0.85221  1.0000
  C   C12       1.0  0.66564  0.47769  0.15032  1.0000
  C   C13       1.0  0.57  0.4649399999999999  0.8740199999999998  1.0000
  C   C14       1.0  0.42095  0.44664999999999994  0.12794  1.0000
  C   C15       1.0  0.55901  0.4676399999999999  0.9799799999999997  1.0000
  C   C16       1.0  0.43161  0.45594999999999997  0.02182  1.0000
  C   C17       1.0  0.4066699999999998  0.13578  0.4983199999999999  1.0000
  C   C18       1.0  0.59304  0.8619299999999999  0.5147799999999999  1.0000
  C   C19       1.0  0.50367  0.06388  0.52499  1.0000
  C   C20       1.0  0.50583  0.93943  0.47935  1.0000
  H   H1        1.0  0.21838  0.44675  0.98813  1.0000
  H   H2        1.0  0.77274  0.49326999999999993  0.01196  1.0000
  H   H3        1.0  0.89774  0.56633  0.42869  1.0000
  H   H4        1.0  0.1019  0.43028  0.56846  1.0000
  H   H5        1.0  0.8692899999999999  0.39293  0.59895  1.0000
  H   H6        1.0  0.13115  0.60435  0.39879999999999993  1.0000
  N   N1        1.0  0.16233  0.55037  0.45754  1.0000
  N   N2        1.0  0.83767  0.44963  0.5424599999999999  1.0000
  O   O1        1.0  0.56793  0.30768  0.50855  1.0000
  O   O2        1.0  0.43207  0.69232  0.49145  1.0000
  O   O3        1.0  0.35109  0.34002  0.48129  1.0000
  O   O4        1.0  0.64891  0.65998  0.5187099999999999  1.0000
  O   O5        1.0  0.59049  0.48648  0.66502  1.0000
  O   O6        1.0  0.40951  0.5135199999999999  0.33498  1.0000
  O   O7        1.0  0.37366  0.51882  0.63776  1.0000
  O   O8        1.0  0.62634  0.4811799999999999  0.36224  1.0000
  Zn  Zn1       1.0  0.64478  0.4784  0.5182  1.0000
  Zn  Zn2       1.0  0.35522  0.5216  0.4818  1.0000
  O   O9        1.0  0.29549  0.42166  0.16837  1.0000
  C   C21       1.0  0.28202  0.30127999999999994  0.20655999999999994  1.0000
  H   H7        1.0  0.21536  0.30062999999999995  0.27304  1.0000
  H   H8        1.0  0.37802  0.26978  0.23703999999999995  1.0000
  C   C22       1.0  0.21763  0.21127  0.12341999999999997  1.0000
  H   H9        1.0  0.117  0.23764  0.09996999999999999  1.0000
  H   H10       1.0  0.27995  0.21425999999999998  0.054329999999999996  1.0000
  C   C23       1.0  0.20440000000000003  0.08103000000000002  0.16301  1.0000
  H   H11       1.0  0.30483  0.051129999999999995  0.18167  1.0000
  H   H12       1.0  0.15348000000000003  0.018499999999999992  0.10243999999999998  1.0000
  H   H13       1.0  0.1448  0.07505  0.23349  1.0000
  O   O10       1.0  0.6924700000000001  0.44391  0.8348299999999997  1.0000
  C   C24       1.0  0.6946799999999999  0.31718  0.8137699999999998  1.0000
  H   H14       1.0  0.75323  0.30792  0.74376  1.0000
  H   H15       1.0  0.59332  0.26937  0.7959999999999999  1.0000
  C   C25       1.0  0.76374  0.25374  0.90273  1.0000
  H   H16       1.0  0.8652500000000001  0.30068  0.91963  1.0000
  H   H17       1.0  0.70491  0.25729  0.9732299999999999  1.0000
  C   C26       1.0  0.77547  0.11966999999999997  0.8764199999999998  1.0000
  H   H18       1.0  0.67455  0.06933  0.86643  1.0000
  H   H19       1.0  0.83115  0.07809  0.94033  1.0000
  H   H20       1.0  0.82981  0.11054999999999998  0.8042599999999999  1.0000
  O   O11       1.0  0.78122  0.4948099999999999  0.21333999999999997  1.0000
  C   C27       1.0  0.85615  0.39225  0.20640999999999998  1.0000
  H   H21       1.0  0.9582300000000001  0.42056  0.23959999999999995  1.0000
  H   H22       1.0  0.86933  0.36239999999999994  0.12514  1.0000
  C   C28       1.0  0.79491  0.28492  0.26898  1.0000
  H   H23       1.0  0.7849800000000001  0.31495  0.35035  1.0000
  H   H24       1.0  0.69395  0.25242  0.23571  1.0000
  C   C29       1.0  0.88188  0.17887999999999998  0.26879  1.0000
  H   H25       1.0  0.89432  0.14627  0.18834  1.0000
  H   H26       1.0  0.8337599999999998  0.10238  0.3131499999999999  1.0000
  H   H27       1.0  0.98144  0.20786  0.30607999999999996  1.0000
  O   O12       1.0  0.21551999999999996  0.4915099999999999  0.79053  1.0000
  C   C30       1.0  0.15686  0.59878  0.8187199999999998  1.0000
  H   H28       1.0  0.19489  0.6741  0.7684599999999999  1.0000
  H   H29       1.0  0.17974999999999997  0.6302299999999998  0.9005299999999998  1.0000
  C   C31       1.0  0.005109999999999986  0.5761399999999999  0.8026199999999998  1.0000
  H   H30       1.0  0.97871  0.5696699999999999  0.71854  1.0000
  H   H31       1.0  0.96957  0.48821999999999977  0.8377299999999998  1.0000
  C   C32       1.0  0.93476  0.67804  0.8521599999999999  1.0000
  H   H32       1.0  0.94414  0.67357  0.9377999999999997  1.0000
  H   H33       1.0  0.8270299999999999  0.6678599999999999  0.82814  1.0000
  H   H34       1.0  0.97947  0.7686299999999998  0.82809  1.0000
  C   C33       1.0  0.42579  0.9052399999999998  0.38192999999999994  1.0000
  H   H35       1.0  0.47397  0.91186  0.30842  1.0000
  O   O13       1.0  0.30812  0.86618  0.38388  1.0000
  C   C34       1.0  0.59953  0.10615  0.6113699999999999  1.0000
  H   H36       1.0  0.56531  0.1048  0.6895599999999998  1.0000
  O   O14       1.0  0.71538  0.14177  0.5948599999999999  1.0000
  O   O15       1.0  0.70095  0.8990599999999999  0.58156  1.0000
  C   C35       1.0  0.82261  0.8870199999999999  0.53232  1.0000
  H   H37       1.0  0.86965  0.97954  0.51631  1.0000
  H   H38       1.0  0.8112  0.83614  0.45646  1.0000
  C   C36       1.0  0.91506  0.82287  0.60543  1.0000
  H   H39       1.0  0.93692  0.8789799999999998  0.67726  1.0000
  H   H40       1.0  0.8635600000000001  0.7337099999999999  0.62682  1.0000
  C   C37       1.0  0.04602000000000002  0.80029  0.5562299999999999  1.0000
  H   H41       1.0  0.02712  0.76313  0.47634  1.0000
  H   H42       1.0  0.09846  0.73477  0.60304  1.0000
  H   H43       1.0  0.11288  0.88532  0.55343  1.0000
  O   O16       1.0  0.28121  0.08491  0.46138  1.0000
  C   C38       1.0  0.17427  0.13083999999999998  0.51426  1.0000
  H   H44       1.0  0.08283  0.07083  0.49167999999999995  1.0000
  H   H45       1.0  0.15126  0.22076999999999994  0.48527  1.0000
  C   C39       1.0  0.19256  0.1325  0.63366  1.0000
  H   H46       1.0  0.2187  0.04203999999999999  0.6600899999999998  1.0000
  H   H47       1.0  0.2750699999999999  0.20193  0.6597499999999998  1.0000
  C   C40       1.0  0.06638  0.16371  0.68572  1.0000
  H   H48       1.0  0.04245  0.25673  0.66523  1.0000
  H   H49       1.0  0.08217999999999999  0.16063999999999998  0.7710399999999997  1.0000
  H   H50       1.0  0.9805700000000002  0.09729999999999998  0.66154  1.0000
