data_image0
_chemical_formula_structural       C20H12N2O12Zn2
_chemical_formula_sum              "C20 H12 N2 O12 Zn2"
_cell_length_a       7.69972
_cell_length_b       8.566290000000002
_cell_length_c       10.92531
_cell_angle_alpha    91.2548
_cell_angle_beta     86.39193999999999
_cell_angle_gamma    93.72998000000001

_space_group_name_H-M_alt    "P 1"
_space_group_IT_number       1

loop_
  _space_group_symop_operation_xyz
  'x, y, z'

loop_
  _atom_site_type_symbol
  _atom_site_label
  _atom_site_symmetry_multiplicity
  _atom_site_fract_x
  _atom_site_fract_y
  _atom_site_fract_z
  _atom_site_occupancy
  C   C1        1.0  0.54604  0.79501  0.49673  1.0000
  C   C2        1.0  0.9595  0.40573  0.056429999999999994  1.0000
  C   C3        1.0  0.02916  0.56366  0.07096  1.0000
  C   C4        1.0  0.9708600000000002  0.43643  0.9290099999999998  1.0000
  C   C5        1.0  0.18858  0.58914  0.13212  1.0000
  C   C6        1.0  0.8114400000000003  0.41094  0.8678599999999999  1.0000
  C   C7        1.0  0.34538000000000013  0.54053  0.06977  1.0000
  C   C8        1.0  0.65463  0.45953  0.9302199999999999  1.0000
  C   C9        1.0  0.3559000000000001  0.55275  0.9426899999999999  1.0000
  C   C10       1.0  0.64412  0.44731  0.05729999999999999  1.0000
  C   C11       1.0  0.4925500000000001  0.49213000000000007  0.12765  1.0000
  C   C12       1.0  0.4539600000000001  0.20499  0.50327  1.0000
  C   C13       1.0  0.50746  0.50791  0.8723499999999998  1.0000
  C   C14       1.0  0.5705  0.95835  0.4948599999999999  1.0000
  C   C15       1.0  0.4295000000000001  0.04165  0.50514  1.0000
  C   C16       1.0  0.5036500000000003  0.50378  0.7399699999999998  1.0000
  C   C17       1.0  0.4963500000000001  0.49623  0.26003  1.0000
  C   C18       1.0  0.21345000000000008  0.62069  0.8917299999999999  1.0000
  C   C19       1.0  0.7865800000000002  0.37938  0.10826  1.0000
  C   C20       1.0  0.04053000000000002  0.59436  0.9435399999999998  1.0000
  H   H1        1.0  0.06562000000000003  0.3626  0.88229  1.0000
  H   H2        1.0  0.01588  0.18898  0.06274  1.0000
  H   H3        1.0  0.08641000000000003  0.71885  0.26338999999999996  1.0000
  H   H4        1.0  0.9135400000000002  0.2814  0.7364699999999997  1.0000
  H   H5        1.0  0.9343900000000003  0.63749  0.11767  1.0000
  H   H6        1.0  0.2351  0.69945  0.81519  1.0000
  H   H7        1.0  0.7649400000000002  0.30061  0.18478999999999998  1.0000
  H   H8        1.0  0.7036000000000002  0.00953  0.48509  1.0000
  H   H9        1.0  0.2964  0.99047  0.5149099999999999  1.0000
  H   H10       1.0  0.014890000000000018  0.38499  0.4054599999999999  1.0000
  H   H11       1.0  0.9851100000000003  0.61501  0.5945399999999998  1.0000
  H   H12       1.0  0.9841900000000002  0.81112  0.9372399999999999  1.0000
  N   N1        1.0  0.95033  0.45795  0.46625  1.0000
  N   N2        1.0  0.04967000000000003  0.54205  0.53375  1.0000
  O   O1        1.0  0.38925000000000004  0.73857  0.5082799999999998  1.0000
  O   O2        1.0  0.06566  0.29223  0.09187  1.0000
  O   O3        1.0  0.20281000000000002  0.70495  0.22199  1.0000
  O   O4        1.0  0.7972200000000003  0.29507  0.7780399999999998  1.0000
  O   O5        1.0  0.61075  0.26143  0.4917199999999999  1.0000
  O   O6        1.0  0.6783900000000003  0.7116299999999999  0.48665  1.0000
  O   O7        1.0  0.32161  0.28837  0.51335  1.0000
  O   O8        1.0  0.35543000000000013  0.51348  0.6940399999999999  1.0000
  O   O9        1.0  0.64457  0.48652  0.30595999999999995  1.0000
  O   O10       1.0  0.64457  0.4865399999999999  0.6724099999999998  1.0000
  O   O11       1.0  0.3554300000000001  0.51346  0.32759  1.0000
  O   O12       1.0  0.9343900000000003  0.70786  0.9081  1.0000
  Zn  Zn1       1.0  0.3069400000000001  0.51799  0.5144399999999999  1.0000
  Zn  Zn2       1.0  0.69306  0.48200999999999994  0.48556  1.0000
