data_image0
_chemical_formula_structural       Pr2C2H2CH2C3H2CH2C3H2C2O12Pr2C2H2CH2C3H2CH2C3H2C2O12
_chemical_formula_sum              "Pr4 C24 H20 O24"
_cell_length_a       7.877
_cell_length_b       12.06
_cell_length_c       12.275
_cell_angle_alpha    112.12
_cell_angle_beta     89.98000000000002
_cell_angle_gamma    99.95

_space_group_name_H-M_alt    "P 1"
_space_group_IT_number       1

loop_
  _space_group_symop_operation_xyz
  'x, y, z'

loop_
  _atom_site_type_symbol
  _atom_site_label
  _atom_site_symmetry_multiplicity
  _atom_site_fract_x
  _atom_site_fract_y
  _atom_site_fract_z
  _atom_site_occupancy
  Pr  Pr1       1.0  0.99088  0.14557  0.85426  1.0000
  Pr  Pr2       1.0  0.49083  0.14515999999999996  0.7519899999999999  1.0000
  C   C1        1.0  0.638  0.138  0.0214  1.0000
  C   C2        1.0  0.615  0.167  0.14799999999999996  1.0000
  H   H1        1.0  0.5334  0.1014  0.1558  1.0000
  H   H2        1.0  0.5655  0.2403  0.1787  1.0000
  C   C3        1.0  0.782  0.18729999999999997  0.22209999999999996  1.0000
  H   H3        1.0  0.8672999999999998  0.2475  0.20749999999999996  1.0000
  H   H4        1.0  0.7588  0.2212  0.3047  1.0000
  C   C4        1.0  0.857  0.078  0.201  1.0000
  C   C5        1.0  0.645  0.9300000000000002  0.6479999999999999  1.0000
  C   C6        1.0  0.715  0.811  0.585  1.0000
  H   H5        1.0  0.6277  0.7529  0.5261  1.0000
  H   H6        1.0  0.7349  0.7761000000000001  0.6426  1.0000
  C   C7        1.0  0.245  0.473  0.866  1.0000
  H   H7        1.0  0.12079999999999999  0.45019999999999993  0.8491999999999998  1.0000
  H   H8        1.0  0.2891  0.5239  0.8231  1.0000
  C   C8        1.0  0.3199999999999999  0.3629999999999998  0.8229999999999997  1.0000
  C   C9        1.0  0.863  0.855  0.42099999999999993  1.0000
  C   C10       1.0  0.898  0.8310000000000001  0.5211  1.0000
  H   H9        1.0  0.9792  0.8992999999999999  0.576  1.0000
  H   H10       1.0  0.9487  0.7590999999999999  0.4985999999999999  1.0000
  C   C11       1.0  0.2849999999999999  0.5439999999999999  0.9959999999999999  1.0000
  C   C12       1.0  0.183  0.641  0.045  1.0000
  O   O1        1.0  0.2269  0.7217  0.1541  1.0000
  O   O2        1.0  0.05199999999999997  0.6471999999999999  0.9950999999999999  1.0000
  O   O3        1.0  0.762  0.9821999999999997  0.2087  1.0000
  O   O4        1.0  0.009999999999999997  0.0736  0.1784  1.0000
  O   O5        1.0  0.4529999999999999  0.35829999999999995  0.7551999999999999  1.0000
  O   O6        1.0  0.2735  0.2777  0.8553  1.0000
  O   O7        1.0  0.5109999999999998  0.14880000000000004  0.9643  1.0000
  O   O8        1.0  0.7714  0.10240000000000002  0.98  1.0000
  O   O9        1.0  0.9897  0.8449  0.349  1.0000
  O   O10       1.0  0.7239999999999998  0.8905  0.3998  1.0000
  O   O11       1.0  0.736  0.017300000000000013  0.7211  1.0000
  O   O12       1.0  0.49  0.9275  0.6199  1.0000
  Pr  Pr3       1.0  0.009119999999999993  0.85443  0.14574  1.0000
  Pr  Pr4       1.0  0.5091700000000001  0.8548400000000002  0.24800999999999998  1.0000
  C   C13       1.0  0.3619999999999999  0.8619999999999999  0.9785999999999999  1.0000
  C   C14       1.0  0.385  0.833  0.8519999999999999  1.0000
  H   H11       1.0  0.4666  0.8986  0.8442  1.0000
  H   H12       1.0  0.4345  0.7597  0.8213  1.0000
  C   C15       1.0  0.21800000000000003  0.8127000000000001  0.7778999999999999  1.0000
  H   H13       1.0  0.1327  0.7525  0.7924999999999999  1.0000
  H   H14       1.0  0.2412  0.7788000000000002  0.6953  1.0000
  C   C16       1.0  0.14300000000000002  0.922  0.7989999999999998  1.0000
  C   C17       1.0  0.35499999999999987  0.07  0.352  1.0000
  C   C18       1.0  0.2849999999999999  0.18899999999999997  0.4149999999999999  1.0000
  H   H15       1.0  0.3723  0.24709999999999993  0.47389999999999993  1.0000
  H   H16       1.0  0.2651  0.22390000000000002  0.3574  1.0000
  C   C19       1.0  0.755  0.527  0.134  1.0000
  H   H17       1.0  0.8791999999999998  0.5498  0.1508  1.0000
  H   H18       1.0  0.7109  0.4761  0.17689999999999997  1.0000
  C   C20       1.0  0.68  0.637  0.177  1.0000
  C   C21       1.0  0.137  0.145  0.579  1.0000
  C   C22       1.0  0.102  0.16899999999999998  0.47889999999999994  1.0000
  H   H19       1.0  0.020799999999999992  0.1007  0.424  1.0000
  H   H20       1.0  0.051299999999999985  0.2409  0.5014  1.0000
  C   C23       1.0  0.715  0.45600000000000007  0.004  1.0000
  C   C24       1.0  0.817  0.3589999999999999  0.9549999999999998  1.0000
  O   O13       1.0  0.7731  0.2783  0.8459  1.0000
  O   O14       1.0  0.9479999999999997  0.3528  0.0049  1.0000
  O   O15       1.0  0.238  0.0178  0.7913  1.0000
  O   O16       1.0  0.9899999999999998  0.9263999999999999  0.8216  1.0000
  O   O17       1.0  0.547  0.6417  0.2448  1.0000
  O   O18       1.0  0.7265  0.7223  0.14469999999999997  1.0000
  O   O19       1.0  0.48899999999999993  0.8512  0.0357  1.0000
  O   O20       1.0  0.2286  0.8976  0.02  1.0000
  O   O21       1.0  0.010299999999999998  0.1551  0.651  1.0000
  O   O22       1.0  0.276  0.1095  0.6002  1.0000
  O   O23       1.0  0.26399999999999996  0.9827  0.2788999999999999  1.0000
  O   O24       1.0  0.51  0.07249999999999998  0.3801  1.0000
