data_image0
_chemical_formula_structural       N4C8H8CoF6Ti
_chemical_formula_sum              "N4 C8 H8 Co1 F6 Ti1"
_cell_length_a       7.096
_cell_length_b       7.086
_cell_length_c       7.83
_cell_angle_alpha    90.0
_cell_angle_beta     90.0
_cell_angle_gamma    90.0

_symmetry_space_group_name_H-M    'P 1'
_symmetry_Int_Tables_number       1

loop_
  _symmetry_equiv_pos_as_xyz
  'x,y,z'

loop_
  _atom_site_type_symbol
  _atom_site_label
  _atom_site_symmetry_multiplicity
  _atom_site_fract_x
  _atom_site_fract_y
  _atom_site_fract_z
  _atom_site_occupancy
  N   N1        1.0  0.526882  0.21971199999999994  0.598441  1.0000
  N   N2        1.0  0.520934  0.8268679999999998  0.5911220000000003  1.0000
  N   N3        1.0  0.826324  0.520576  0.591235  1.0000
  N   N4        1.0  0.21878099999999995  0.525986  0.598515  1.0000
  C   C1        1.0  0.5776049999999998  0.12436399999999997  0.457074  1.0000
  C   C2        1.0  0.470763  0.922215  0.732726  1.0000
  C   C3        1.0  0.574089  0.9271229999999999  0.453287  1.0000
  C   C4        1.0  0.4741  0.11939499999999999  0.736391  1.0000
  C   C5        1.0  0.926534  0.573964  0.45353  1.0000
  C   C6        1.0  0.11850899999999999  0.472568  0.7362650000000002  1.0000
  C   C7        1.0  0.123514  0.5772839999999998  0.457309  1.0000
  C   C8        1.0  0.9215439999999998  0.46948  0.7326270000000003  1.0000
  H   H1        1.0  0.620843  0.20430499999999993  0.344779  1.0000
  H   H2        1.0  0.4277709999999999  0.8423  0.845078  1.0000
  H   H3        1.0  0.6126169999999997  0.8515069999999999  0.3372710000000001  1.0000
  H   H4        1.0  0.435382  0.19481899999999994  0.85237  1.0000
  H   H5        1.0  0.851054  0.612784  0.337569  1.0000
  H   H6        1.0  0.193806  0.433098  0.852093  1.0000
  H   H7        1.0  0.203375  0.6208989999999998  0.3451730000000001  1.0000
  H   H8        1.0  0.841687  0.42621299999999995  0.8448980000000003  1.0000
  Co  Co1       1.0  0.523247  0.5241299999999999  0.594072  1.0000
  F   F1        1.0  0.520073  0.521786  0.33974900000000013  1.0000
  F   F2        1.0  0.520029  0.521729  0.848465  1.0000
  F   F3        1.0  0.334391  0.336109  0.09668800000000002  1.0000
  F   F4        1.0  0.70548  0.7072889999999998  0.097768  1.0000
  F   F5        1.0  0.7055889999999998  0.3360189999999999  0.097206  1.0000
  F   F6        1.0  0.3342879999999999  0.7074049999999998  0.097183  1.0000
  Ti  Ti1       1.0  0.519887  0.521659  0.094708  1.0000
