data_image0
_chemical_formula_structural       O2C3HO2C3HO2C3HO2C3HO2C3HO2C3HO2C3HO2C3HO2C3HO2C3HO2C3HO2C3HO2C3HO2C3HO2C3HO2C3HAl8OHOHOHOHOHOHOHOHC2HC2HC2HC2HC2HC2HC2HC2H
_chemical_formula_sum              "O40 C64 H32 Al8"
_cell_length_a       14.7854
_cell_length_b       14.7854
_cell_length_c       11.774
_cell_angle_alpha    90.0
_cell_angle_beta     90.0
_cell_angle_gamma    90.0

_symmetry_space_group_name_H-M    'P 1'
_symmetry_Int_Tables_number       1

loop_
  _symmetry_equiv_pos_as_xyz
  'x,y,z'

loop_
  _atom_site_type_symbol
  _atom_site_label
  _atom_site_symmetry_multiplicity
  _atom_site_fract_x
  _atom_site_fract_y
  _atom_site_fract_z
  _atom_site_occupancy
  O   O1        1.0  0.625  0.38016  0.59997  1.0000
  O   O2        1.0  0.60774  0.28648  0.74083  1.0000
  C   C1        1.0  0.59425  0.36275  0.697  1.0000
  C   C2        1.0  0.54312  0.43076  0.75845  1.0000
  C   C3        1.0  0.54312  0.43076  0.87672  1.0000
  H   H1        1.0  0.5756299999999999  0.37856  0.9213100000000001  1.0000
  O   O3        1.0  0.125  0.88016  0.09997  1.0000
  O   O4        1.0  0.10774  0.78648  0.24083000000000002  1.0000
  C   C4        1.0  0.09425  0.86275  0.19699999999999998  1.0000
  C   C5        1.0  0.04312  0.93076  0.25845  1.0000
  C   C6        1.0  0.04312  0.93076  0.37672  1.0000
  H   H2        1.0  0.07563  0.87856  0.42131  1.0000
  O   O5        1.0  0.875  0.11984  0.09997  1.0000
  O   O6        1.0  0.89226  0.21352  0.24083000000000002  1.0000
  C   C7        1.0  0.90575  0.13725  0.19699999999999998  1.0000
  C   C8        1.0  0.95688  0.06924  0.25845  1.0000
  C   C9        1.0  0.95688  0.06924  0.37672  1.0000
  H   H3        1.0  0.9243700000000001  0.12144  0.42131  1.0000
  O   O7        1.0  0.37500000000000006  0.61984  0.59997  1.0000
  O   O8        1.0  0.39226  0.71352  0.74083  1.0000
  C   C10       1.0  0.40575  0.63725  0.697  1.0000
  C   C11       1.0  0.45688  0.56924  0.75845  1.0000
  C   C12       1.0  0.45688  0.56924  0.87672  1.0000
  H   H4        1.0  0.42437  0.62144  0.9213100000000001  1.0000
  O   O9        1.0  0.61984  0.125  0.8499699999999999  1.0000
  O   O10       1.0  0.71352  0.10774  0.99083  1.0000
  C   C13       1.0  0.63725  0.09425  0.947  1.0000
  C   C14       1.0  0.56924  0.04312  0.00845  1.0000
  C   C15       1.0  0.56924  0.04312  0.12672  1.0000
  H   H5        1.0  0.62144  0.07563  0.17131000000000002  1.0000
  O   O11       1.0  0.11984  0.625  0.34997  1.0000
  O   O12       1.0  0.21352  0.60774  0.49083  1.0000
  C   C16       1.0  0.13725  0.59425  0.447  1.0000
  C   C17       1.0  0.06924  0.54312  0.50845  1.0000
  C   C18       1.0  0.06924  0.54312  0.62672  1.0000
  H   H6        1.0  0.12144  0.5756299999999999  0.67131  1.0000
  O   O13       1.0  0.88016  0.37500000000000006  0.34997  1.0000
  O   O14       1.0  0.78648  0.39226  0.49083  1.0000
  C   C19       1.0  0.86275  0.40575  0.447  1.0000
  C   C20       1.0  0.93076  0.45688  0.50845  1.0000
  C   C21       1.0  0.93076  0.45688  0.62672  1.0000
  H   H7        1.0  0.87856  0.42437  0.67131  1.0000
  O   O15       1.0  0.38016  0.875  0.8499699999999999  1.0000
  O   O16       1.0  0.28648  0.89226  0.99083  1.0000
  C   C22       1.0  0.36275  0.90575  0.947  1.0000
  C   C23       1.0  0.43076  0.95688  0.00845  1.0000
  C   C24       1.0  0.43076  0.95688  0.12672  1.0000
  H   H8        1.0  0.37856  0.9243700000000001  0.17131000000000002  1.0000
  O   O17       1.0  0.875  0.38016  0.15003  1.0000
  O   O18       1.0  0.89226  0.28648  0.00917  1.0000
  C   C25       1.0  0.90575  0.36275  0.053  1.0000
  C   C26       1.0  0.95688  0.43076  0.99155  1.0000
  C   C27       1.0  0.95688  0.43076  0.87328  1.0000
  H   H9        1.0  0.9243700000000001  0.37856  0.8286900000000001  1.0000
  O   O19       1.0  0.37500000000000006  0.88016  0.65003  1.0000
  O   O20       1.0  0.39226  0.78648  0.50917  1.0000
  C   C28       1.0  0.40575  0.86275  0.553  1.0000
  C   C29       1.0  0.45688  0.93076  0.49155  1.0000
  C   C30       1.0  0.45688  0.93076  0.37328  1.0000
  H   H10       1.0  0.42437  0.87856  0.32869  1.0000
  O   O21       1.0  0.625  0.11984  0.65003  1.0000
  O   O22       1.0  0.60774  0.21352  0.50917  1.0000
  C   C31       1.0  0.59425  0.13725  0.553  1.0000
  C   C32       1.0  0.54312  0.06924  0.49155  1.0000
  C   C33       1.0  0.54312  0.06924  0.37328  1.0000
  H   H11       1.0  0.5756299999999999  0.12144  0.32869  1.0000
  O   O23       1.0  0.125  0.61984  0.15003  1.0000
  O   O24       1.0  0.10774  0.71352  0.00917  1.0000
  C   C34       1.0  0.09425  0.63725  0.053  1.0000
  C   C35       1.0  0.04312  0.56924  0.99155  1.0000
  C   C36       1.0  0.04312  0.56924  0.87328  1.0000
  H   H12       1.0  0.07563  0.62144  0.8286900000000001  1.0000
  O   O25       1.0  0.88016  0.125  0.90003  1.0000
  O   O26       1.0  0.78648  0.10774  0.75917  1.0000
  C   C37       1.0  0.86275  0.09425  0.8029999999999999  1.0000
  C   C38       1.0  0.93076  0.04312  0.74155  1.0000
  C   C39       1.0  0.93076  0.04312  0.62328  1.0000
  H   H13       1.0  0.87856  0.07563  0.57869  1.0000
  O   O27       1.0  0.38016  0.625  0.40003000000000005  1.0000
  O   O28       1.0  0.28648  0.60774  0.25917  1.0000
  C   C40       1.0  0.36275  0.59425  0.303  1.0000
  C   C41       1.0  0.43076  0.54312  0.24155  1.0000
  C   C42       1.0  0.43076  0.54312  0.12328  1.0000
  H   H14       1.0  0.37856  0.5756299999999999  0.07869  1.0000
  O   O29       1.0  0.61984  0.37500000000000006  0.40003000000000005  1.0000
  O   O30       1.0  0.71352  0.39226  0.25917  1.0000
  C   C43       1.0  0.63725  0.40575  0.303  1.0000
  C   C44       1.0  0.56924  0.45688  0.24155  1.0000
  C   C45       1.0  0.56924  0.45688  0.12328  1.0000
  H   H15       1.0  0.62144  0.42437  0.07869  1.0000
  O   O31       1.0  0.11984  0.875  0.90003  1.0000
  O   O32       1.0  0.21352  0.89226  0.75917  1.0000
  C   C46       1.0  0.13725  0.90575  0.8029999999999999  1.0000
  C   C47       1.0  0.06924  0.95688  0.74155  1.0000
  C   C48       1.0  0.06924  0.95688  0.62328  1.0000
  H   H16       1.0  0.12144  0.9243700000000001  0.57869  1.0000
  Al  Al1       1.0  0.69243  0.30757  0.5  1.0000
  Al  Al2       1.0  0.19243  0.80757  0.0  1.0000
  Al  Al3       1.0  0.80757  0.19243  0.0  1.0000
  Al  Al4       1.0  0.30757  0.69243  0.5  1.0000
  Al  Al5       1.0  0.69243  0.19243  0.75  1.0000
  Al  Al6       1.0  0.19243  0.69243  0.25  1.0000
  Al  Al7       1.0  0.80757  0.30757  0.25  1.0000
  Al  Al8       1.0  0.30757  0.80757  0.75  1.0000
  O   O33       1.0  0.7525  0.25  0.625  1.0000
  H   H17       1.0  0.81494  0.25  0.625  1.0000
  O   O34       1.0  0.2525  0.7500000000000001  0.125  1.0000
  H   H18       1.0  0.31494  0.7500000000000001  0.125  1.0000
  O   O35       1.0  0.7475  0.25  0.125  1.0000
  H   H19       1.0  0.68506  0.25  0.125  1.0000
  O   O36       1.0  0.2475  0.7500000000000001  0.625  1.0000
  H   H20       1.0  0.18506  0.7500000000000001  0.625  1.0000
  O   O37       1.0  0.7500000000000001  0.2525  0.875  1.0000
  H   H21       1.0  0.7500000000000001  0.31494  0.875  1.0000
  O   O38       1.0  0.25  0.7525  0.375  1.0000
  H   H22       1.0  0.25  0.81494  0.375  1.0000
  O   O39       1.0  0.7500000000000001  0.2475  0.375  1.0000
  H   H23       1.0  0.7500000000000001  0.18506  0.375  1.0000
  O   O40       1.0  0.25  0.7475  0.875  1.0000
  H   H24       1.0  0.25  0.68506  0.875  1.0000
  C   C49       1.0  0.5  0.5  0.69931  1.0000
  C   C50       1.0  0.5  0.5  0.93586  1.0000
  H   H25       1.0  0.5  0.5  0.61013  1.0000
  C   C51       1.0  0.0  0.0  0.19930999999999996  1.0000
  C   C52       1.0  0.0  0.0  0.43586  1.0000
  H   H26       1.0  0.0  0.0  0.11013  1.0000
  C   C53       1.0  0.5  0.0  0.9493100000000001  1.0000
  C   C54       1.0  0.5  0.0  0.18586  1.0000
  H   H27       1.0  0.5  0.0  0.8601300000000001  1.0000
  C   C55       1.0  0.0  0.5  0.44931  1.0000
  C   C56       1.0  0.0  0.5  0.68586  1.0000
  H   H28       1.0  0.0  0.5  0.36013  1.0000
  C   C57       1.0  0.0  0.5  0.050690000000000006  1.0000
  C   C58       1.0  0.0  0.5  0.81414  1.0000
  H   H29       1.0  0.0  0.5  0.13987  1.0000
  C   C59       1.0  0.5  0.0  0.55069  1.0000
  C   C60       1.0  0.5  0.0  0.31414  1.0000
  H   H30       1.0  0.5  0.0  0.63987  1.0000
  C   C61       1.0  0.0  0.0  0.8006900000000001  1.0000
  C   C62       1.0  0.0  0.0  0.56414  1.0000
  H   H31       1.0  0.0  0.0  0.8898700000000002  1.0000
  C   C63       1.0  0.5  0.5  0.30069  1.0000
  C   C64       1.0  0.5  0.5  0.06414  1.0000
  H   H32       1.0  0.5  0.5  0.38987000000000005  1.0000
