data_image0
_chemical_formula_structural       CdCHC2HC2HC2HCHCHCHCHCHCHCHCHN6CdCHC2HC2HC2HCHCHCHCHCHCHCHCHN6CdCHC2HC2HC2HCHCHCHCHCHCHCHCHN6CdCHC2HC2HC2HCHCHCHCHCHCHCHCHN6
_chemical_formula_sum              "Cd4 C60 H48 N24"
_cell_length_a       9.042
_cell_length_b       9.042
_cell_length_c       27.231
_cell_angle_alpha    90.0
_cell_angle_beta     90.0
_cell_angle_gamma    90.0

_symmetry_space_group_name_H-M    'P 1'
_symmetry_Int_Tables_number       1

loop_
  _symmetry_equiv_pos_as_xyz
  'x,y,z'

loop_
  _atom_site_type_symbol
  _atom_site_label
  _atom_site_symmetry_multiplicity
  _atom_site_fract_x
  _atom_site_fract_y
  _atom_site_fract_z
  _atom_site_occupancy
  Cd  Cd1       1.0  0.18552  0.38249  0.19968  1.0000
  C   C1        1.0  0.48829999999999996  0.7975  0.30977  1.0000
  H   H1        1.0  0.4166  0.8249999999999998  0.3325  1.0000
  C   C2        1.0  0.5298999999999999  0.8916999999999999  0.27268  1.0000
  C   C3        1.0  0.638  0.8565  0.23874000000000004  1.0000
  H   H2        1.0  0.6637  0.9224  0.2139  1.0000
  C   C4        1.0  0.707  0.72  0.24278  1.0000
  C   C5        1.0  0.6652  0.6191  0.2791  1.0000
  H   H3        1.0  0.7096  0.5265  0.2809  1.0000
  C   C6        1.0  0.5566  0.6594  0.31237  1.0000
  C   C7        1.0  0.3868  0.0919  0.23068  1.0000
  H   H4        1.0  0.3785  0.0468  0.2001  1.0000
  C   C8        1.0  0.3656  0.246  0.29024  1.0000
  H   H5        1.0  0.3385  0.329  0.3083  1.0000
  C   C9        1.0  0.44669999999999993  0.131  0.30748  1.0000
  H   H6        1.0  0.4861  0.1205  0.3388  1.0000
  C   C10       1.0  0.878  0.5487  0.20016  1.0000
  H   H7        1.0  0.8365  0.4608999999999999  0.2114  1.0000
  C   C11       1.0  0.0196  0.7037  0.16429  1.0000
  H   H8        1.0  0.0967  0.7427999999999999  0.1458  1.0000
  C   C12       1.0  0.9148  0.784  0.18694000000000005  1.0000
  H   H9        1.0  0.9053  0.8864  0.1868  1.0000
  C   C13       1.0  0.5972  0.4449  0.36811  1.0000
  H   H10       1.0  0.6921  0.4214  0.3575000000000001  1.0000
  C   C14       1.0  0.3831  0.5578  0.37602  1.0000
  H   H11       1.0  0.3045  0.6232  0.3723  1.0000
  C   C15       1.0  0.3914  0.44259999999999994  0.40782000000000007  1.0000
  H   H12       1.0  0.3179  0.4153  0.4299  1.0000
  N   N1        1.0  0.3299  0.22069999999999998  0.24207  1.0000
  N   N2        1.0  0.45859999999999995  0.0342  0.26942  1.0000
  N   N3        1.0  0.9966000000000002  0.5565  0.17231  1.0000
  N   N4        1.0  0.8245  0.6843  0.21029  1.0000
  N   N5        1.0  0.5148  0.5585  0.35023  1.0000
  N   N6        1.0  0.5248  0.37289999999999995  0.40239  1.0000
  Cd  Cd2       1.0  0.81448  0.61751  0.69968  1.0000
  C   C16       1.0  0.5117  0.20249999999999999  0.80977  1.0000
  H   H13       1.0  0.5834  0.175  0.8325  1.0000
  C   C17       1.0  0.4701  0.1083  0.77268  1.0000
  C   C18       1.0  0.362  0.1435  0.73874  1.0000
  H   H14       1.0  0.3363  0.0776  0.7139  1.0000
  C   C19       1.0  0.293  0.28  0.7427800000000001  1.0000
  C   C20       1.0  0.3348  0.3809  0.7791000000000002  1.0000
  H   H15       1.0  0.2904  0.4735  0.7809  1.0000
  C   C21       1.0  0.44339999999999996  0.3406  0.81237  1.0000
  C   C22       1.0  0.6132  0.9080999999999999  0.73068  1.0000
  H   H16       1.0  0.6215  0.9532  0.7001  1.0000
  C   C23       1.0  0.6344  0.754  0.7902400000000003  1.0000
  H   H17       1.0  0.6615  0.6709999999999999  0.8083000000000002  1.0000
  C   C24       1.0  0.5533  0.869  0.80748  1.0000
  H   H18       1.0  0.5139  0.8795  0.8388000000000001  1.0000
  C   C25       1.0  0.122  0.4513  0.70016  1.0000
  H   H19       1.0  0.1635  0.5391  0.7114  1.0000
  C   C26       1.0  0.9803999999999999  0.2963  0.66429  1.0000
  H   H20       1.0  0.9033  0.2572  0.6458  1.0000
  C   C27       1.0  0.0852  0.216  0.68694  1.0000
  H   H21       1.0  0.0947  0.11359999999999999  0.6868000000000001  1.0000
  C   C28       1.0  0.4028  0.5551  0.86811  1.0000
  H   H22       1.0  0.3079  0.5786  0.8575  1.0000
  C   C29       1.0  0.6169  0.4422  0.87602  1.0000
  H   H23       1.0  0.6955  0.3768  0.8723  1.0000
  C   C30       1.0  0.6086  0.5574  0.90782  1.0000
  H   H24       1.0  0.6821  0.5847  0.9299000000000001  1.0000
  N   N7        1.0  0.6701  0.7793  0.74207  1.0000
  N   N8        1.0  0.5414  0.9658  0.76942  1.0000
  N   N9        1.0  0.0034  0.44349999999999995  0.67231  1.0000
  N   N10       1.0  0.1755  0.3157  0.7102900000000001  1.0000
  N   N11       1.0  0.48519999999999996  0.4415  0.85023  1.0000
  N   N12       1.0  0.4752  0.6271  0.9023900000000001  1.0000
  Cd  Cd3       1.0  0.61751  0.18552  0.44968  1.0000
  C   C31       1.0  0.20249999999999999  0.48829999999999996  0.55977  1.0000
  H   H25       1.0  0.175  0.4166  0.5825  1.0000
  C   C32       1.0  0.1083  0.5298999999999999  0.52268  1.0000
  C   C33       1.0  0.1435  0.638  0.4887400000000001  1.0000
  H   H26       1.0  0.0776  0.6637  0.4639  1.0000
  C   C34       1.0  0.28  0.707  0.49278  1.0000
  C   C35       1.0  0.3809  0.6652  0.5291  1.0000
  H   H27       1.0  0.4735  0.7096  0.5309  1.0000
  C   C36       1.0  0.3406  0.5566  0.56237  1.0000
  C   C37       1.0  0.9080999999999999  0.3868  0.4806800000000001  1.0000
  H   H28       1.0  0.9532  0.3785  0.4501  1.0000
  C   C38       1.0  0.754  0.3656  0.54024  1.0000
  H   H29       1.0  0.6709999999999999  0.3385  0.5583  1.0000
  C   C39       1.0  0.869  0.44669999999999993  0.55748  1.0000
  H   H30       1.0  0.8795  0.4861  0.5888  1.0000
  C   C40       1.0  0.4513  0.878  0.45016  1.0000
  H   H31       1.0  0.5391  0.8365  0.4614000000000001  1.0000
  C   C41       1.0  0.2963  0.0196  0.41429  1.0000
  H   H32       1.0  0.2572  0.0967  0.3958  1.0000
  C   C42       1.0  0.216  0.9148  0.43694  1.0000
  H   H33       1.0  0.11359999999999999  0.9053  0.4368  1.0000
  C   C43       1.0  0.5551  0.5972  0.61811  1.0000
  H   H34       1.0  0.5786  0.6921  0.6075000000000003  1.0000
  C   C44       1.0  0.4422  0.3831  0.62602  1.0000
  H   H35       1.0  0.3768  0.3045  0.6223000000000002  1.0000
  C   C45       1.0  0.5574  0.3914  0.65782  1.0000
  H   H36       1.0  0.5847  0.3179  0.6799  1.0000
  N   N13       1.0  0.7793  0.3299  0.49207  1.0000
  N   N14       1.0  0.9658  0.45859999999999995  0.51942  1.0000
  N   N15       1.0  0.44349999999999995  0.9966000000000002  0.42231000000000013  1.0000
  N   N16       1.0  0.3157  0.8245  0.46029  1.0000
  N   N17       1.0  0.4415  0.5148  0.6002300000000002  1.0000
  N   N18       1.0  0.6271  0.5248  0.65239  1.0000
  Cd  Cd4       1.0  0.38249  0.81448  0.9496800000000001  1.0000
  C   C46       1.0  0.7975  0.5117  0.05977000000000001  1.0000
  H   H37       1.0  0.8249999999999998  0.5834  0.0825  1.0000
  C   C47       1.0  0.8916999999999999  0.4701  0.02268  1.0000
  C   C48       1.0  0.8565  0.362  0.98874  1.0000
  H   H38       1.0  0.9224  0.3363  0.9639000000000001  1.0000
  C   C49       1.0  0.72  0.293  0.99278  1.0000
  C   C50       1.0  0.6191  0.3348  0.0291  1.0000
  H   H39       1.0  0.5265  0.2904  0.0309  1.0000
  C   C51       1.0  0.6594  0.44339999999999996  0.062370000000000016  1.0000
  C   C52       1.0  0.0919  0.6132  0.9806800000000002  1.0000
  H   H40       1.0  0.0468  0.6215  0.9501000000000002  1.0000
  C   C53       1.0  0.246  0.6344  0.04024  1.0000
  H   H41       1.0  0.329  0.6615  0.058300000000000005  1.0000
  C   C54       1.0  0.131  0.5533  0.05748  1.0000
  H   H42       1.0  0.1205  0.5139  0.0888  1.0000
  C   C55       1.0  0.5487  0.122  0.9501600000000001  1.0000
  H   H43       1.0  0.4608999999999999  0.1635  0.9614  1.0000
  C   C56       1.0  0.7037  0.9803999999999999  0.91429  1.0000
  H   H44       1.0  0.7427999999999999  0.9033  0.8958000000000003  1.0000
  C   C57       1.0  0.784  0.0852  0.93694  1.0000
  H   H45       1.0  0.8864  0.0947  0.9368  1.0000
  C   C58       1.0  0.4449  0.4028  0.11811  1.0000
  H   H46       1.0  0.4214  0.3079  0.10750000000000001  1.0000
  C   C59       1.0  0.5578  0.6169  0.12602  1.0000
  H   H47       1.0  0.6232  0.6955  0.1223  1.0000
  C   C60       1.0  0.44259999999999994  0.6086  0.15782  1.0000
  H   H48       1.0  0.4153  0.6821  0.1799  1.0000
  N   N19       1.0  0.22069999999999998  0.6701  0.9920700000000001  1.0000
  N   N20       1.0  0.0342  0.5414  0.01942  1.0000
  N   N21       1.0  0.5565  0.0034  0.92231  1.0000
  N   N22       1.0  0.6843  0.1755  0.96029  1.0000
  N   N23       1.0  0.5585  0.48519999999999996  0.10023000000000003  1.0000
  N   N24       1.0  0.37289999999999995  0.4752  0.15239000000000003  1.0000
