data_image0
_chemical_formula_structural       O2C3HCHC2HO2C3HCHC2HO2C3HCHC2HO2C3HCHC2HZn2O2C3HCHC2HO2C3HCHC2HO2C3HCHC2HO2C3HCHC2HZn2
_chemical_formula_sum              "O16 C48 H24 Zn4"
_cell_length_a       21.859
_cell_length_b       11.6653
_cell_length_c       7.3751
_cell_angle_alpha    90.0
_cell_angle_beta     100.30099999999999
_cell_angle_gamma    90.0

_symmetry_space_group_name_H-M    'P 1'
_symmetry_Int_Tables_number       1

loop_
  _symmetry_equiv_pos_as_xyz
  'x,y,z'

loop_
  _atom_site_type_symbol
  _atom_site_label
  _atom_site_symmetry_multiplicity
  _atom_site_fract_x
  _atom_site_fract_y
  _atom_site_fract_z
  _atom_site_occupancy
  O   O1        1.0  0.07660999999999998  0.0178  0.8686000000000003  1.0000
  O   O2        1.0  0.04753999999999999  0.8646999999999999  0.013100000000000004  1.0000
  C   C1        1.0  0.0851  0.9215999999999999  0.9445  1.0000
  C   C2        1.0  0.14919999999999997  0.8715999999999999  0.9457000000000002  1.0000
  C   C3        1.0  0.18769999999999998  0.9073999999999999  0.8375  1.0000
  H   H1        1.0  0.17629999999999998  0.9685  0.7579  1.0000
  C   C4        1.0  0.24709999999999996  0.8527999999999998  0.8417  1.0000
  H   H2        1.0  0.272  0.8825999999999999  0.7632  1.0000
  C   C5        1.0  0.2689  0.7684  0.9411  1.0000
  C   C6        1.0  0.17059999999999997  0.7842  0.055300000000000016  1.0000
  H   H3        1.0  0.14539999999999997  0.7553  0.1337  1.0000
  O   O3        1.0  0.92339  0.0178  0.6314000000000002  1.0000
  O   O4        1.0  0.9524599999999998  0.8646999999999999  0.4869000000000001  1.0000
  C   C7        1.0  0.9149000000000002  0.9215999999999999  0.5555  1.0000
  C   C8        1.0  0.8507999999999998  0.8715999999999999  0.5543000000000002  1.0000
  C   C9        1.0  0.8122999999999999  0.9073999999999999  0.6625  1.0000
  H   H4        1.0  0.8237  0.9685  0.7421  1.0000
  C   C10       1.0  0.7528999999999999  0.8527999999999998  0.6583  1.0000
  H   H5        1.0  0.728  0.8825999999999999  0.7368  1.0000
  C   C11       1.0  0.7311  0.7684  0.5589  1.0000
  C   C12       1.0  0.8293999999999998  0.7842  0.4447  1.0000
  H   H6        1.0  0.8546  0.7553  0.3663  1.0000
  O   O5        1.0  0.42339  0.4822  0.1314  1.0000
  O   O6        1.0  0.4524599999999999  0.6352999999999999  0.9869  1.0000
  C   C13       1.0  0.4148999999999999  0.5784  0.05550000000000001  1.0000
  C   C14       1.0  0.3507999999999999  0.6283999999999998  0.0543  1.0000
  C   C15       1.0  0.31229999999999997  0.5926  0.16250000000000003  1.0000
  H   H7        1.0  0.3237  0.5314999999999999  0.2421  1.0000
  C   C16       1.0  0.2529  0.6472  0.1583  1.0000
  H   H8        1.0  0.22799999999999998  0.6173999999999998  0.2368  1.0000
  C   C17       1.0  0.2311  0.7316  0.0589  1.0000
  C   C18       1.0  0.32939999999999997  0.7158  0.9447000000000002  1.0000
  H   H9        1.0  0.3545999999999999  0.7447  0.8663  1.0000
  O   O7        1.0  0.57661  0.4822  0.36860000000000004  1.0000
  O   O8        1.0  0.54754  0.6352999999999999  0.5131  1.0000
  C   C19       1.0  0.5850999999999998  0.5784  0.4445000000000001  1.0000
  C   C20       1.0  0.6492  0.6283999999999998  0.4457000000000001  1.0000
  C   C21       1.0  0.6876999999999999  0.5926  0.3375  1.0000
  H   H10       1.0  0.6763  0.5314999999999999  0.2579  1.0000
  C   C22       1.0  0.7471  0.6472  0.34170000000000006  1.0000
  H   H11       1.0  0.772  0.6173999999999998  0.2632  1.0000
  C   C23       1.0  0.7688999999999999  0.7316  0.4411  1.0000
  C   C24       1.0  0.6706  0.7158  0.5553  1.0000
  H   H12       1.0  0.6454  0.7447  0.6337  1.0000
  Zn  Zn1       1.0  0.0  0.11602999999999997  0.75  1.0000
  Zn  Zn2       1.0  0.4999999999999999  0.38397  0.25  1.0000
  O   O9        1.0  0.57661  0.5178  0.8686000000000003  1.0000
  O   O10       1.0  0.54754  0.3647  0.013100000000000004  1.0000
  C   C25       1.0  0.5850999999999998  0.4216  0.9445  1.0000
  C   C26       1.0  0.6492  0.3716  0.9457000000000002  1.0000
  C   C27       1.0  0.6876999999999999  0.4074  0.8375  1.0000
  H   H13       1.0  0.6763  0.4685  0.7579  1.0000
  C   C28       1.0  0.7471  0.35279999999999995  0.8417  1.0000
  H   H14       1.0  0.772  0.3826  0.7632  1.0000
  C   C29       1.0  0.7688999999999999  0.2684  0.9411  1.0000
  C   C30       1.0  0.6706  0.2842  0.055300000000000016  1.0000
  H   H15       1.0  0.6454  0.2553  0.1337  1.0000
  O   O11       1.0  0.42339  0.5178  0.6314000000000002  1.0000
  O   O12       1.0  0.4524599999999999  0.3647  0.4869000000000001  1.0000
  C   C31       1.0  0.4148999999999999  0.4216  0.5555  1.0000
  C   C32       1.0  0.35079999999999995  0.3716  0.5543000000000002  1.0000
  C   C33       1.0  0.31229999999999997  0.4074  0.6625  1.0000
  H   H16       1.0  0.3237  0.4685  0.7421  1.0000
  C   C34       1.0  0.2529  0.35279999999999995  0.6583  1.0000
  H   H17       1.0  0.22799999999999995  0.3826  0.7368  1.0000
  C   C35       1.0  0.2311  0.2684  0.5589  1.0000
  C   C36       1.0  0.3293999999999999  0.2842  0.4447  1.0000
  H   H18       1.0  0.35459999999999997  0.2553  0.3663  1.0000
  O   O13       1.0  0.92339  0.9822  0.1314  1.0000
  O   O14       1.0  0.9524599999999998  0.1353  0.9869  1.0000
  C   C37       1.0  0.9149  0.0784  0.05550000000000001  1.0000
  C   C38       1.0  0.8507999999999998  0.12839999999999996  0.0543  1.0000
  C   C39       1.0  0.8122999999999999  0.0926  0.16250000000000003  1.0000
  H   H19       1.0  0.8237  0.0315  0.2421  1.0000
  C   C40       1.0  0.7528999999999999  0.1472  0.1583  1.0000
  H   H20       1.0  0.728  0.1174  0.2368  1.0000
  C   C41       1.0  0.7311  0.2316  0.0589  1.0000
  C   C42       1.0  0.8293999999999998  0.21579999999999996  0.9447000000000002  1.0000
  H   H21       1.0  0.8546  0.2447  0.8663  1.0000
  O   O15       1.0  0.07660999999999998  0.9822  0.36860000000000004  1.0000
  O   O16       1.0  0.04753999999999999  0.1353  0.5131  1.0000
  C   C43       1.0  0.0851  0.0784  0.4445000000000001  1.0000
  C   C44       1.0  0.14919999999999997  0.12839999999999996  0.4457000000000001  1.0000
  C   C45       1.0  0.18769999999999998  0.0926  0.3375  1.0000
  H   H22       1.0  0.17629999999999998  0.0315  0.2579  1.0000
  C   C46       1.0  0.24709999999999996  0.1472  0.34170000000000006  1.0000
  H   H23       1.0  0.272  0.1174  0.2632  1.0000
  C   C47       1.0  0.2689  0.2316  0.4411  1.0000
  C   C48       1.0  0.17059999999999997  0.21579999999999996  0.5553  1.0000
  H   H24       1.0  0.14539999999999997  0.2447  0.6337  1.0000
  Zn  Zn3       1.0  0.4999999999999998  0.61603  0.75  1.0000
  Zn  Zn4       1.0  0.0  0.88397  0.25  1.0000
