data_image0
_chemical_formula_structural       C28H18C28H18C28H18C28H18C28H18C28H18Mn5CN8C2N8CN16Cl2C4Mn5CN8C2N8CN16Cl2C4Mn5CN8C2N8CN16Cl2C4
_chemical_formula_sum              "C192 H108 Mn15 N96 Cl6"
_cell_length_a       32.3285
_cell_length_b       31.1236
_cell_length_c       10.738100000000001
_cell_angle_alpha    89.8972
_cell_angle_beta     97.9764
_cell_angle_gamma    116.33709999999999

_symmetry_space_group_name_H-M    'P 1'
_symmetry_Int_Tables_number       1

loop_
  _symmetry_equiv_pos_as_xyz
  'x,y,z'

loop_
  _atom_site_type_symbol
  _atom_site_label
  _atom_site_symmetry_multiplicity
  _atom_site_fract_x
  _atom_site_fract_y
  _atom_site_fract_z
  _atom_site_occupancy
  C   C1        1.0  0.44182999999999995  0.5263599999999999  0.15615  1.0000
  C   C2        1.0  0.45534  0.52958  0.03441  1.0000
  C   C3        1.0  0.42557000000000006  0.5004  0.92721  1.0000
  C   C4        1.0  0.37853  0.4715099999999999  0.9405200000000001  1.0000
  C   C5        1.0  0.3637  0.4689699999999999  0.06067  1.0000
  C   C6        1.0  0.31304  0.4401399999999999  0.0763  1.0000
  C   C7        1.0  0.29461  0.47203  0.1362  1.0000
  C   C8        1.0  0.24556999999999995  0.4453999999999999  0.16665  1.0000
  C   C9        1.0  0.23221999999999998  0.46628999999999987  0.26121  1.0000
  C   C10       1.0  0.18530999999999992  0.4457999999999999  0.27938  1.0000
  C   C11       1.0  0.15434999999999993  0.40245  0.21223  1.0000
  C   C12       1.0  0.16297999999999996  0.39658  0.09212  1.0000
  C   C13       1.0  0.13312  0.40987  0.9964800000000001  1.0000
  C   C14       1.0  0.14827999999999994  0.4595799999999999  0.9779400000000001  1.0000
  C   C15       1.0  0.19553  0.49223  0.97889  1.0000
  C   C16       1.0  0.21022  0.54132  0.9894100000000001  1.0000
  C   C17       1.0  0.17768000000000006  0.55878  0.9913000000000001  1.0000
  C   C18       1.0  0.12988  0.52733  0.9678100000000001  1.0000
  C   C19       1.0  0.11482999999999996  0.4774499999999999  0.95533  1.0000
  C   C20       1.0  0.07091  0.44656  0.88801  1.0000
  C   C21       1.0  0.05335999999999997  0.3970499999999999  0.91292  1.0000
  C   C22       1.0  0.007649999999999958  0.3639099999999999  0.86063  1.0000
  C   C23       1.0  0.9909399999999999  0.31503  0.87869  1.0000
  C   C24       1.0  0.020350000000000056  0.29782  0.9428800000000002  1.0000
  C   C25       1.0  0.06708  0.32914999999999994  0.98521  1.0000
  C   C26       1.0  0.08457999999999995  0.3787899999999999  0.96832  1.0000
  C   C27       1.0  0.20959999999999995  0.4099399999999999  0.07939  1.0000
  C   C28       1.0  0.39633  0.49425  0.16818  1.0000
  H   H1        1.0  0.49081  0.55399  0.02282  1.0000
  H   H2        1.0  0.3534  0.45217999999999997  0.85816  1.0000
  H   H3        1.0  0.29192999999999997  0.4245099999999999  0.98269  1.0000
  H   H4        1.0  0.30973999999999996  0.4102699999999999  0.13718  1.0000
  H   H5        1.0  0.3177999999999999  0.49063  0.2252  1.0000
  H   H6        1.0  0.29608999999999996  0.50038  0.0716  1.0000
  H   H7        1.0  0.25697  0.50002  0.31159  1.0000
  H   H8        1.0  0.11802999999999993  0.38707999999999987  0.22503000000000004  1.0000
  H   H9        1.0  0.22120999999999993  0.48064  0.96437  1.0000
  H   H10       1.0  0.24692999999999996  0.5657299999999998  0.9947600000000001  1.0000
  H   H11       1.0  0.19040999999999994  0.59686  0.0044999999999999485  1.0000
  H   H12       1.0  0.10483000000000002  0.54164  0.95809  1.0000
  H   H13       1.0  0.98539  0.37521999999999994  0.8006200000000001  1.0000
  H   H14       1.0  0.95537  0.29026  0.83998  1.0000
  H   H15       1.0  0.007430000000000002  0.25974  0.9550600000000001  1.0000
  H   H16       1.0  0.08974  0.3141  0.027050000000000005  1.0000
  H   H17       1.0  0.21687  0.40255  0.98874  1.0000
  H   H18       1.0  0.38631  0.48896  0.26126  1.0000
  C   C29       1.0  0.90979  0.39522  0.016629999999999923  1.0000
  C   C30       1.0  0.9201899999999997  0.39848  0.14781  1.0000
  C   C31       1.0  0.88596  0.3861299999999999  0.2281  1.0000
  C   C32       1.0  0.8386099999999999  0.36471  0.17083  1.0000
  C   C33       1.0  0.8271  0.35911  0.03623  1.0000
  C   C34       1.0  0.77695  0.33563  0.96846  1.0000
  C   C35       1.0  0.76717  0.29372999999999994  0.86997  1.0000
  C   C36       1.0  0.7367699999999998  0.2445  0.91048  1.0000
  C   C37       1.0  0.70045  0.20742999999999995  0.82486  1.0000
  C   C38       1.0  0.6726899999999999  0.16253999999999993  0.87038  1.0000
  C   C39       1.0  0.68038  0.15788  0.0009500000000000064  1.0000
  C   C40       1.0  0.71838  0.19169999999999995  0.08149  1.0000
  C   C41       1.0  0.72368  0.18061999999999995  0.21534000000000003  1.0000
  C   C42       1.0  0.72649  0.13703  0.23759000000000002  1.0000
  C   C43       1.0  0.75607  0.12476999999999998  0.17649  1.0000
  C   C44       1.0  0.75426  0.0792  0.18435  1.0000
  C   C45       1.0  0.72246  0.04492999999999999  0.25124  1.0000
  C   C46       1.0  0.69231  0.05604999999999999  0.3109  1.0000
  C   C47       1.0  0.69429  0.10230999999999997  0.30639  1.0000
  C   C48       1.0  0.66246  0.11372  0.35932  1.0000
  C   C49       1.0  0.6692699999999998  0.16189999999999993  0.36633  1.0000
  C   C50       1.0  0.6424299999999998  0.17598999999999995  0.43513  1.0000
  C   C51       1.0  0.64596  0.22227  0.43062  1.0000
  C   C52       1.0  0.67626  0.25533  0.3583  1.0000
  C   C53       1.0  0.70339  0.24235  0.29084  1.0000
  C   C54       1.0  0.70047  0.19576  0.29418  1.0000
  C   C55       1.0  0.74734  0.23451  0.03553  1.0000
  C   C56       1.0  0.86313  0.3768199999999999  0.96146  1.0000
  H   H19       1.0  0.9567699999999998  0.4136299999999999  0.18892  1.0000
  H   H20       1.0  0.8113699999999998  0.35185  0.22956  1.0000
  H   H21       1.0  0.7521  0.32334  0.03777  1.0000
  H   H22       1.0  0.7706  0.3638599999999999  0.91794  1.0000
  H   H23       1.0  0.75074  0.29955  0.7777300000000001  1.0000
  H   H24       1.0  0.8002599999999999  0.29352  0.8533  1.0000
  H   H25       1.0  0.69536  0.21304  0.72541  1.0000
  H   H26       1.0  0.65759  0.12525  0.04086999999999996  1.0000
  H   H27       1.0  0.7802199999999999  0.15030999999999994  0.12114  1.0000
  H   H28       1.0  0.77686  0.07007  0.13605  1.0000
  H   H29       1.0  0.72065  0.009349999999999968  0.2548  1.0000
  H   H30       1.0  0.6673899999999998  0.028149999999999994  0.35951  1.0000
  H   H31       1.0  0.6180199999999999  0.15113999999999994  0.49116  1.0000
  H   H32       1.0  0.62475  0.23239  0.48227  1.0000
  H   H33       1.0  0.6784099999999997  0.2910299999999999  0.35363  1.0000
  H   H34       1.0  0.72651  0.26894  0.23582000000000003  1.0000
  H   H35       1.0  0.77692  0.26078  0.09876000000000001  1.0000
  H   H36       1.0  0.85458  0.37641  0.8600200000000001  1.0000
  C   C57       1.0  0.88614  0.50109  0.49214  1.0000
  C   C58       1.0  0.9021699999999998  0.52731  0.39002  1.0000
  C   C59       1.0  0.8794999999999997  0.50777  0.26791  1.0000
  C   C60       1.0  0.8337199999999998  0.4699099999999999  0.25279  1.0000
  C   C61       1.0  0.8130099999999998  0.45054  0.36038  1.0000
  C   C62       1.0  0.7613599999999999  0.4178899999999999  0.35367  1.0000
  C   C63       1.0  0.73807  0.4363799999999999  0.44443  1.0000
  C   C64       1.0  0.74518  0.48788999999999993  0.4344100000000001  1.0000
  C   C65       1.0  0.72867  0.50765  0.52244  1.0000
  C   C66       1.0  0.72959  0.55292  0.50749  1.0000
  C   C67       1.0  0.7556599999999996  0.58145  0.41762  1.0000
  C   C68       1.0  0.7661  0.56033  0.31606  1.0000
  C   C69       1.0  0.7693000000000001  0.58087  0.18618  1.0000
  C   C70       1.0  0.75527  0.61694  0.16941  1.0000
  C   C71       1.0  0.78322  0.66287  0.22948  1.0000
  C   C72       1.0  0.7631199999999998  0.69308  0.2501  1.0000
  C   C73       1.0  0.7151099999999999  0.6763299999999998  0.21685  1.0000
  C   C74       1.0  0.68815  0.63165  0.1509400000000003  1.0000
  C   C75       1.0  0.70872  0.6033799999999999  0.11234999999999996  1.0000
  C   C76       1.0  0.68552  0.5618299999999999  0.024010000000000087  1.0000
  C   C77       1.0  0.71165  0.53634  0.0015499999999999405  1.0000
  C   C78       1.0  0.6956399999999998  0.4980999999999999  0.90833  1.0000
  C   C79       1.0  0.7245599999999998  0.4778099999999999  0.88183  1.0000
  C   C80       1.0  0.7697400000000001  0.49488  0.94758  1.0000
  C   C81       1.0  0.78513  0.53003  0.04628  1.0000
  C   C82       1.0  0.7555799999999999  0.54895  0.07851999999999992  1.0000
  C   C83       1.0  0.7611399999999998  0.51351  0.32937  1.0000
  C   C84       1.0  0.84109  0.46345  0.47809  1.0000
  H   H37       1.0  0.9369999999999999  0.55714  0.40365  1.0000
  H   H38       1.0  0.8153799999999999  0.4540099999999999  0.1596  1.0000
  H   H39       1.0  0.7428499999999999  0.41301999999999994  0.2556  1.0000
  H   H40       1.0  0.7569499999999998  0.3818499999999999  0.38119  1.0000
  H   H41       1.0  0.6999  0.4123299999999999  0.42886  1.0000
  H   H42       1.0  0.75118  0.43296  0.54339  1.0000
  H   H43       1.0  0.7085199999999999  0.48463  0.58969  1.0000
  H   H44       1.0  0.7554899999999999  0.6159199999999999  0.41049  1.0000
  H   H45       1.0  0.8193399999999996  0.6733999999999998  0.26912  1.0000
  H   H46       1.0  0.7839699999999996  0.7276599999999998  0.30111  1.0000
  H   H47       1.0  0.69846  0.6977099999999998  0.2430300000000001  1.0000
  H   H48       1.0  0.65131  0.6184599999999998  0.14266  1.0000
  H   H49       1.0  0.6608399999999999  0.4828099999999999  0.8560200000000001  1.0000
  H   H50       1.0  0.7120599999999998  0.44929  0.80819  1.0000
  H   H51       1.0  0.79243  0.4799199999999999  0.92429  1.0000
  H   H52       1.0  0.8199800000000002  0.54238  0.09841  1.0000
  H   H53       1.0  0.76546  0.49489  0.25261  1.0000
  H   H54       1.0  0.8272  0.44592  0.56056  1.0000
  C   C85       1.0  0.42399  0.89083  0.97255  1.0000
  C   C86       1.0  0.44226  0.8898499999999998  0.10055  1.0000
  C   C87       1.0  0.41326999999999986  0.8663599999999998  0.19021000000000002  1.0000
  C   C88       1.0  0.36585  0.83616  0.14299  1.0000
  C   C89       1.0  0.34823  0.83203  0.01221  1.0000
  C   C90       1.0  0.29677  0.8032  0.9639500000000001  1.0000
  C   C91       1.0  0.2846499999999999  0.7512299999999997  0.9179999999999999  1.0000
  C   C92       1.0  0.23817999999999995  0.7153199999999998  0.95041  1.0000
  C   C93       1.0  0.20076999999999995  0.68432  0.8568000000000001  1.0000
  C   C94       1.0  0.15787999999999988  0.6523399999999998  0.89333  1.0000
  C   C95       1.0  0.1535099999999999  0.6527299999999999  0.021670000000000078  1.0000
  C   C96       1.0  0.18921  0.68405  0.1126  1.0000
  C   C97       1.0  0.17756999999999995  0.68627  0.24029  1.0000
  C   C98       1.0  0.18824  0.65876  0.33194  1.0000
  C   C99       1.0  0.23006  0.6541  0.34192  1.0000
  C   C100      1.0  0.23919999999999994  0.62533  0.43054  1.0000
  C   C101      1.0  0.20636  0.59968  0.50751  1.0000
  C   C102      1.0  0.16420999999999994  0.6025599999999998  0.49599  1.0000
  C   C103      1.0  0.15454999999999997  0.6321499999999999  0.40895999999999993  1.0000
  C   C104      1.0  0.11042999999999989  0.6324599999999998  0.39017  1.0000
  C   C105      1.0  0.10499999999999998  0.66869  0.32176  1.0000
  C   C106      1.0  0.06443999999999996  0.67528  0.31727  1.0000
  C   C107      1.0  0.05839000000000003  0.7093799999999999  0.24242000000000002  1.0000
  C   C108      1.0  0.09237999999999985  0.7370599999999998  0.17044  1.0000
  C   C109      1.0  0.13252999999999995  0.73067  0.17247  1.0000
  C   C110      1.0  0.1395199999999999  0.6966799999999997  0.24834  1.0000
  C   C111      1.0  0.23215999999999995  0.71377  0.07817  1.0000
  C   C112      1.0  0.37736999999999987  0.8605499999999998  0.9286  1.0000
  H   H55       1.0  0.4780999999999999  0.9149699999999997  0.13696  1.0000
  H   H56       1.0  0.3416199999999999  0.8200199999999999  0.20908  1.0000
  H   H57       1.0  0.27683999999999975  0.8046399999999998  0.03887  1.0000
  H   H58       1.0  0.2860099999999999  0.82082  0.8843300000000001  1.0000
  H   H59       1.0  0.28465  0.74973  0.81457  1.0000
  H   H60       1.0  0.31175  0.74082  0.96289  1.0000
  H   H61       1.0  0.20468999999999987  0.6860599999999998  0.7580000000000001  1.0000
  H   H62       1.0  0.12071999999999995  0.62895  0.05204999999999994  1.0000
  H   H63       1.0  0.25626  0.67316  0.28321  1.0000
  H   H64       1.0  0.27164  0.62249  0.43877  1.0000
  H   H65       1.0  0.21334999999999993  0.5771099999999998  0.57562  1.0000
  H   H66       1.0  0.13903  0.58124  0.55471  1.0000
  H   H67       1.0  0.03762999999999996  0.6544899999999998  0.37271  1.0000
  H   H68       1.0  0.027209999999999953  0.7143299999999999  0.24027  1.0000
  H   H69       1.0  0.08736999999999989  0.7632299999999997  0.11194  1.0000
  H   H70       1.0  0.1581199999999999  0.7522999999999997  0.11441  1.0000
  H   H71       1.0  0.26028  0.73723  0.14999  1.0000
  H   H72       1.0  0.36309  0.86144  0.83169  1.0000
  C   C113      1.0  0.5464599999999997  0.88924  0.44353  1.0000
  C   C114      1.0  0.56337  0.8972499999999999  0.32483  1.0000
  C   C115      1.0  0.54774  0.85845  0.23128  1.0000
  C   C116      1.0  0.51705  0.81238  0.26299  1.0000
  C   C117      1.0  0.5036699999999995  0.8028899999999998  0.38213  1.0000
  C   C118      1.0  0.4750399999999999  0.75113  0.41453000000000007  1.0000
  C   C119      1.0  0.50054  0.73004  0.51192  1.0000
  C   C120      1.0  0.5363699999999998  0.71667  0.46774  1.0000
  C   C121      1.0  0.5400899999999997  0.6741999999999998  0.50038  1.0000
  C   C122      1.0  0.57426  0.66361  0.4563400000000001  1.0000
  C   C123      1.0  0.5933499999999999  0.6875199999999999  0.35157  1.0000
  C   C124      1.0  0.5863  0.72748  0.31421  1.0000
  C   C125      1.0  0.57892  0.73763  0.18037  1.0000
  C   C126      1.0  0.5318999999999997  0.7220499999999997  0.12186000000000001  1.0000
  C   C127      1.0  0.49360999999999994  0.6850699999999997  0.16743  1.0000
  C   C128      1.0  0.4479299999999999  0.6772699999999999  0.12265  1.0000
  C   C129      1.0  0.43975999999999976  0.7065199999999998  0.03406  1.0000
  C   C130      1.0  0.47668  0.73948  0.9784100000000001  1.0000
  C   C131      1.0  0.52264  0.7456599999999998  0.01766  1.0000
  C   C132      1.0  0.5572099999999999  0.7660799999999998  0.9404500000000001  1.0000
  C   C133      1.0  0.6041  0.7859799999999998  7e-05  1.0000
  C   C134      1.0  0.6400099999999996  0.8142699999999998  0.93261  1.0000
  C   C135      1.0  0.6865999999999997  0.8308699999999998  0.987  1.0000
  C   C136      1.0  0.69783  0.8194199999999999  0.10890000000000001  1.0000
  C   C137      1.0  0.66258  0.79013  0.17628  1.0000
  C   C138      1.0  0.61529  0.77217  0.12206  1.0000
  C   C139      1.0  0.5675699999999998  0.74697  0.39352  1.0000
  C   C140      1.0  0.51642  0.84167  0.46869000000000005  1.0000
  H   H73       1.0  0.58865  0.93278  0.30599  1.0000
  H   H74       1.0  0.50318  0.78289  0.19489  1.0000
  H   H75       1.0  0.44445  0.74986  0.4534000000000001  1.0000
  H   H76       1.0  0.45987000000000006  0.72684  0.32831  1.0000
  H   H77       1.0  0.51764  0.7557799999999999  0.5952900000000001  1.0000
  H   H78       1.0  0.47257999999999994  0.6962699999999998  0.53967  1.0000
  H   H79       1.0  0.52038  0.65258  0.56942  1.0000
  H   H80       1.0  0.61543  0.67716  0.30496  1.0000
  H   H81       1.0  0.49883999999999984  0.6625099999999998  0.23856  1.0000
  H   H82       1.0  0.41901  0.64981  0.1608  1.0000
  H   H83       1.0  0.40478999999999987  0.7030099999999998  0.00662  1.0000
  H   H84       1.0  0.46953999999999985  0.7594299999999999  0.9029  1.0000
  H   H85       1.0  0.63179  0.82222  0.83642  1.0000
  H   H86       1.0  0.7140199999999998  0.85171  0.93309  1.0000
  H   H87       1.0  0.7341  0.83193  0.14971  1.0000
  H   H88       1.0  0.67259  0.7801599999999997  0.26825  1.0000
  H   H89       1.0  0.5701399999999998  0.7819  0.37732000000000004  1.0000
  H   H90       1.0  0.5066599999999999  0.8341499999999997  0.56206  1.0000
  C   C141      1.0  0.52706  0.40082  0.9432100000000001  1.0000
  C   C142      1.0  0.53284  0.42309  0.82736  1.0000
  C   C143      1.0  0.49733999999999995  0.40433999999999987  0.7217900000000002  1.0000
  C   C144      1.0  0.45776999999999984  0.36001  0.7324000000000002  1.0000
  C   C145      1.0  0.4532499999999999  0.33694  0.84648  1.0000
  C   C146      1.0  0.4196899999999999  0.2846  0.8546100000000001  1.0000
  C   C147      1.0  0.44758  0.25484  0.86948  1.0000
  C   C148      1.0  0.42921  0.21247  0.95105  1.0000
  C   C149      1.0  0.45319999999999994  0.21528999999999998  0.07562  1.0000
  C   C150      1.0  0.44495999999999997  0.17278  0.13853  1.0000
  C   C151      1.0  0.4094499999999999  0.12961  0.07973  1.0000
  C   C152      1.0  0.40075  0.12609  0.9491700000000001  1.0000
  C   C153      1.0  0.41806  0.09473  0.89214  1.0000
  C   C154      1.0  0.38909  0.04482999999999999  0.86658  1.0000
  C   C155      1.0  0.34078  0.0247  0.8717200000000002  1.0000
  C   C156      1.0  0.3114899999999998  0.9771199999999999  0.82831  1.0000
  C   C157      1.0  0.32945999999999986  0.9493999999999999  0.77605  1.0000
  C   C158      1.0  0.37712  0.96854  0.77087  1.0000
  C   C159      1.0  0.40822  0.015139999999999995  0.82304  1.0000
  C   C160      1.0  0.4563  0.03576  0.80835  1.0000
  C   C161      1.0  0.4852599999999999  0.07886999999999997  0.88028  1.0000
  C   C162      1.0  0.53358  0.09427  0.90927  1.0000
  C   C163      1.0  0.5637  0.14284999999999998  0.9382  1.0000
  C   C164      1.0  0.54681  0.1767  0.9274000000000001  1.0000
  C   C165      1.0  0.49895  0.16155999999999995  0.90463  1.0000
  C   C166      1.0  0.46710999999999997  0.11221  0.8933700000000001  1.0000
  C   C167      1.0  0.4027  0.1665  0.88806  1.0000
  C   C168      1.0  0.48601999999999984  0.3599199999999999  0.95272  1.0000
  H   H91       1.0  0.5657699999999998  0.45252  0.81709  1.0000
  H   H92       1.0  0.43226  0.34159000000000006  0.64962  1.0000
  H   H93       1.0  0.40092  0.28102  0.9362000000000001  1.0000
  H   H94       1.0  0.39305  0.27075  0.76838  1.0000
  H   H95       1.0  0.4488999999999999  0.24254999999999993  0.7735600000000001  1.0000
  H   H96       1.0  0.48491  0.27744  0.90796  1.0000
  H   H97       1.0  0.4815499999999998  0.2491  0.1163  1.0000
  H   H98       1.0  0.40303  0.09657  0.12400000000000001  1.0000
  H   H99       1.0  0.32503  0.046019999999999985  0.90425  1.0000
  H   H100      1.0  0.2743699999999999  0.9622499999999999  0.83039  1.0000
  H   H101      1.0  0.30617999999999984  0.9133599999999996  0.73613  1.0000
  H   H102      1.0  0.38894  0.9474  0.72065  1.0000
  H   H103      1.0  0.54804  0.06909  0.90951  1.0000
  H   H104      1.0  0.6002699999999996  0.1549  0.9657600000000001  1.0000
  H   H105      1.0  0.5706  0.2147  0.94301  1.0000
  H   H106      1.0  0.48826  0.18928999999999999  0.8946900000000001  1.0000
  H   H107      1.0  0.393  0.16314  0.78656  1.0000
  H   H108      1.0  0.48185999999999996  0.3423599999999999  0.04057  1.0000
  Mn  Mn1       1.0  0.6385499999999997  0.7260899999999998  0.88453  1.0000
  Mn  Mn2       1.0  0.55452  0.60927  0.85959  1.0000
  Mn  Mn3       1.0  0.48414999999999986  0.3877299999999999  0.21059000000000003  1.0000
  Mn  Mn4       1.0  0.56221  0.50496  0.29508  1.0000
  Mn  Mn5       1.0  0.55616  0.53903  0.60535  1.0000
  C   C169      1.0  0.54631  0.73373  0.82724  1.0000
  N   N1        1.0  0.56992  0.70747  0.8328400000000001  1.0000
  N   N2        1.0  0.53803  0.66252  0.81856  1.0000
  N   N3        1.0  0.4964499999999999  0.6599299999999998  0.7817400000000001  1.0000
  N   N4        1.0  0.5007  0.70413  0.78299  1.0000
  N   N5        1.0  0.46191  0.55939  0.78413  1.0000
  N   N6        1.0  0.49905  0.56894  0.73132  1.0000
  N   N7        1.0  0.49824  0.52927  0.68909  1.0000
  N   N8        1.0  0.46717999999999993  0.49282999999999993  0.74461  1.0000
  C   C170      1.0  0.4433699999999999  0.51262  0.80227  1.0000
  C   C171      1.0  0.63881  0.5501999999999999  0.94575  1.0000
  N   N9        1.0  0.5764699999999998  0.55667  0.88352  1.0000
  N   N10       1.0  0.6069599999999999  0.5617499999999999  0.9842  1.0000
  N   N11       1.0  0.58347  0.61335  0.62693  1.0000
  N   N12       1.0  0.5982099999999998  0.63321  0.74083  1.0000
  N   N13       1.0  0.62961  0.6783099999999997  0.74293  1.0000
  N   N14       1.0  0.63466  0.68984  0.62618  1.0000
  N   N15       1.0  0.58725  0.53926  0.7861500000000001  1.0000
  N   N16       1.0  0.62722  0.537  0.82074  1.0000
  C   C172      1.0  0.6036299999999997  0.65021  0.55165  1.0000
  N   N17       1.0  0.55051  0.4189099999999999  0.17331  1.0000
  N   N18       1.0  0.5839  0.45816  0.23575  1.0000
  N   N19       1.0  0.61881  0.4767999999999999  0.16967  1.0000
  N   N20       1.0  0.60615  0.45388  0.05694  1.0000
  N   N21       1.0  0.6576599999999999  0.5438699999999999  0.3904000000000001  1.0000
  N   N22       1.0  0.61759  0.5396299999999999  0.4136  1.0000
  N   N23       1.0  0.61782  0.5481799999999999  0.53373  1.0000
  N   N24       1.0  0.65997  0.5564699999999999  0.59546  1.0000
  N   N25       1.0  0.47772  0.53604  0.39005000000000006  1.0000
  N   N26       1.0  0.5214099999999999  0.5435599999999999  0.4326400000000001  1.0000
  N   N27       1.0  0.54518  0.55487  0.34009  1.0000
  N   N28       1.0  0.5227700000000002  0.56484  0.24294  1.0000
  N   N29       1.0  0.53134  0.4669099999999999  0.55347  1.0000
  N   N30       1.0  0.53106  0.45872999999999997  0.43077000000000004  1.0000
  N   N31       1.0  0.50513  0.4129899999999999  0.39521  1.0000
  N   N32       1.0  0.4886  0.3887699999999999  0.49230000000000007  1.0000
  Cl  Cl1       1.0  0.6134999999999999  0.6619299999999998  0.0017499999999999183  1.0000
  Cl  Cl2       1.0  0.49351  0.46128999999999987  0.16582  1.0000
  C   C173      1.0  0.56242  0.41963999999999996  0.05762  1.0000
  C   C174      1.0  0.68427  0.5544599999999998  0.50248  1.0000
  C   C175      1.0  0.47939  0.54925  0.26781  1.0000
  C   C176      1.0  0.50522  0.4215999999999999  0.59225  1.0000
  Mn  Mn6       1.0  0.9071  0.57046  0.96605  1.0000
  Mn  Mn7       1.0  0.0016099999999998778  0.5512199999999999  0.93992  1.0000
  Mn  Mn8       1.0  0.10580999999999992  0.3937199999999999  0.46875  1.0000
  Mn  Mn9       1.0  0.03239000000000001  0.44454  0.39029  1.0000
  Mn  Mn10      1.0  0.0023299999999999745  0.49483999999999995  0.64918  1.0000
  C   C177      1.0  0.9122999999999999  0.50634  0.19023999999999994  1.0000
  N   N33       1.0  0.92275  0.52531  0.07813000000000003  1.0000
  N   N34       1.0  0.9615399999999998  0.5224399999999999  0.06834000000000007  1.0000
  N   N35       1.0  0.97638  0.50657  0.16959999999999997  1.0000
  N   N36       1.0  0.9456999999999999  0.4949999999999999  0.24632999999999997  1.0000
  N   N37       1.0  0.98813  0.45748999999999995  0.0016300000000000203  1.0000
  N   N38       1.0  0.004769999999999955  0.48688999999999993  0.91355  1.0000
  N   N39       1.0  0.9832599999999999  0.46268999999999993  0.80459  1.0000
  N   N40       1.0  0.9450099999999999  0.4232699999999999  0.8183900000000001  1.0000
  C   C178      1.0  0.9490399999999999  0.4202699999999999  0.9447000000000001  1.0000
  C   C179      1.0  0.11297999999999998  0.62428  0.8079200000000001  1.0000
  N   N41       1.0  0.0412899999999999  0.5825999999999998  0.81532  1.0000
  N   N42       1.0  0.07573999999999982  0.6254299999999998  0.84615  1.0000
  N   N43       1.0  0.9510099999999996  0.5193899999999999  0.67767  1.0000
  N   N44       1.0  0.94966  0.53101  0.797  1.0000
  N   N45       1.0  0.91337  0.53856  0.8083100000000001  1.0000
  N   N46       1.0  0.88785  0.5316399999999999  0.69784  1.0000
  N   N47       1.0  0.054020000000000006  0.55604  0.7524  1.0000
  N   N48       1.0  0.09966999999999993  0.58049  0.7469  1.0000
  C   C180      1.0  0.91019  0.51888  0.61841  1.0000
  N   N49       1.0  0.12459  0.45248  0.37309  1.0000
  N   N50       1.0  0.09699  0.47242  0.33627  1.0000
  N   N51       1.0  0.11811  0.50767  0.26434  1.0000
  N   N52       1.0  0.15927  0.50939  0.2518  1.0000
  N   N53       1.0  0.06374000000000002  0.54606  0.34405  1.0000
  N   N54       1.0  0.03543000000000002  0.51118  0.40530000000000005  1.0000
  N   N55       1.0  0.02352999999999999  0.52982  0.4965  1.0000
  N   N56       1.0  0.04478  0.57741  0.49837000000000004  1.0000
  N   N57       1.0  0.9139399999999998  0.42698  0.45203000000000004  1.0000
  N   N58       1.0  0.9551999999999998  0.4364399999999999  0.52115  1.0000
  N   N59       1.0  0.9722500000000001  0.41148  0.46533  1.0000
  N   N60       1.0  0.9393599999999998  0.3775299999999999  0.38689  1.0000
  N   N61       1.0  0.05198999999999988  0.4668499999999999  0.65867  1.0000
  N   N62       1.0  0.06427999999999999  0.45343999999999995  0.55904  1.0000
  N   N63       1.0  0.09152999999999997  0.4325399999999999  0.58896  1.0000
  N   N64       1.0  0.09931000000000002  0.43135  0.70998  1.0000
  Cl  Cl3       1.0  0.9868599999999998  0.61527  0.97214  1.0000
  Cl  Cl4       1.0  0.03248999999999998  0.37201  0.37134  1.0000
  C   C181      1.0  0.16296999999999995  0.47434  0.32037  1.0000
  C   C182      1.0  0.06908999999999996  0.58686  0.40135  1.0000
  C   C183      1.0  0.90416  0.38929  0.36706  1.0000
  C   C184      1.0  0.07462  0.4516999999999999  0.75396  1.0000
  Mn  Mn11      1.0  0.41104  0.09425  0.3708000000000001  1.0000
  Mn  Mn12      1.0  0.4774  0.0381  0.32273  1.0000
  Mn  Mn13      1.0  0.63088  0.9086199999999998  0.9285600000000002  1.0000
  Mn  Mn14      1.0  0.58342  0.98406  0.90047  1.0000
  Mn  Mn15      1.0  0.525  0.9962199999999999  0.6008  1.0000
  C   C185      1.0  0.48204  0.1666  0.22563  1.0000
  N   N65       1.0  0.4697399999999999  0.1283  0.29613  1.0000
  N   N66       1.0  0.49800999999999995  0.10881  0.28464  1.0000
  N   N67       1.0  0.53071  0.13667  0.21991  1.0000
  N   N68       1.0  0.5220299999999998  0.17325  0.18398  1.0000
  N   N69       1.0  0.57711  0.07593  0.30585  1.0000
  N   N70       1.0  0.5431  0.0473  0.36502  1.0000
  N   N71       1.0  0.55978  0.03013  0.46097  1.0000
  N   N72       1.0  0.6056899999999997  0.04811  0.46964  1.0000
  C   C186      1.0  0.6157599999999998  0.07591999999999999  0.37133  1.0000
  C   C187      1.0  0.42469  0.89698  0.30907  1.0000
  N   N73       1.0  0.45221  0.96959  0.37303000000000003  1.0000
  N   N74       1.0  0.4210900000000001  0.93735  0.28809000000000007  1.0000
  N   N75       1.0  0.48745  0.03814  0.59592  1.0000
  N   N76       1.0  0.47699999999999987  0.05735  0.49319  1.0000
  N   N77       1.0  0.44902  0.07677  0.50965  1.0000
  N   N78       1.0  0.43839  0.07015  0.62245  1.0000
  N   N79       1.0  0.4720799999999999  0.9500699999999997  0.45638000000000006  1.0000
  N   N80       1.0  0.45822000000000007  0.90463  0.41283  1.0000
  C   C188      1.0  0.46123  0.04594999999999999  0.67605  1.0000
  N   N81       1.0  0.58446  0.90597  0.04949000000000004  1.0000
  N   N82       1.0  0.55743  0.9218799999999998  0.98433  1.0000
  N   N83       1.0  0.51542  0.88631  0.95169  1.0000
  N   N84       1.0  0.51167  0.84973  0.018769999999999953  1.0000
  N   N85       1.0  0.49486999999999987  0.9623599999999998  0.95339  1.0000
  N   N86       1.0  0.51977  0.98017  0.86369  1.0000
  N   N87       1.0  0.4941699999999998  0.9635799999999998  0.7526100000000001  1.0000
  N   N88       1.0  0.4526199999999999  0.9283299999999998  0.76715  1.0000
  N   N89       1.0  0.60237  0.09922  0.71356  1.0000
  N   N90       1.0  0.58123  0.051279999999999985  0.72169  1.0000
  N   N91       1.0  0.60757  0.0403  0.80626  1.0000
  N   N92       1.0  0.64643  0.07764999999999998  0.8505200000000002  1.0000
  N   N93       1.0  0.56038  0.95111  0.62646  1.0000
  N   N94       1.0  0.5761999999999999  0.9467899999999998  0.74571  1.0000
  N   N95       1.0  0.5960899999999999  0.9179399999999998  0.7563700000000001  1.0000
  N   N96       1.0  0.5955799999999997  0.9021599999999999  0.64245  1.0000
  Cl  Cl5       1.0  0.4027  0.027009999999999992  0.27239  1.0000
  Cl  Cl6       1.0  0.6560899999999998  0.9883699999999999  0.95228  1.0000
  C   C189      1.0  0.55332  0.86445  0.09315999999999991  1.0000
  C   C190      1.0  0.4540499999999999  0.9286399999999998  0.89544  1.0000
  C   C191      1.0  0.6436799999999999  0.11505999999999997  0.7960600000000001  1.0000
  C   C192      1.0  0.57231  0.9207399999999999  0.56071  1.0000
