data_image0
_chemical_formula_structural       EuOCO6COC2EuOCO6COC2EuOCO6COC2EuOCO6COC11H6C9H6C9H6C9H6C9H6C9H6C9H6C9H6
_chemical_formula_sum              "Eu4 O32 C88 H48"
_cell_length_a       39.3213
_cell_length_b       17.820700000000002
_cell_length_c       6.8416
_cell_angle_alpha    83.0434
_cell_angle_beta     83.6642
_cell_angle_gamma    89.772

_space_group_name_H-M_alt    "P 1"
_space_group_IT_number       1

loop_
  _space_group_symop_operation_xyz
  'x, y, z'

loop_
  _atom_site_type_symbol
  _atom_site_label
  _atom_site_symmetry_multiplicity
  _atom_site_fract_x
  _atom_site_fract_y
  _atom_site_fract_z
  _atom_site_occupancy
  Eu  Eu1       1.0  0.39348  0.72132  0.06958  1.0000
  O   O1        1.0  0.32502  0.78065  0.04633  1.0000
  C   C1        1.0  0.35671  0.57016  0.10390999999999999  1.0000
  O   O2        1.0  0.45326000000000005  0.81873  0.8422499999999999  1.0000
  O   O3        1.0  0.39949  0.84696  0.96046  1.0000
  O   O4        1.0  0.46074  0.64285  0.08135999999999999  1.0000
  O   O5        1.0  0.34341  0.61063  0.97718  1.0000
  O   O6        1.0  0.38507  0.59608  0.18081999999999998  1.0000
  O   O7        1.0  0.35351  0.75145  0.31459999999999994  1.0000
  C   C2        1.0  0.3255  0.7821  0.22550999999999993  1.0000
  O   O8        1.0  0.43592  0.72915  0.26726  1.0000
  C   C3        1.0  0.46353000000000005  0.68481  0.20677999999999996  1.0000
  C   C4        1.0  0.43243999999999994  0.86757  0.87602  1.0000
  Eu  Eu2       1.0  0.8694200000000001  0.73539  0.81636  1.0000
  O   O9        1.0  0.81709  0.85798  0.81964  1.0000
  C   C5        1.0  0.8117400000000001  0.71511  0.15368  1.0000
  O   O10       1.0  0.93812  0.8009  0.84532  1.0000
  O   O11       1.0  0.90697  0.80304  0.58603  1.0000
  O   O12       1.0  0.9226800000000001  0.61801  0.86888  1.0000
  O   O13       1.0  0.82514  0.7693399999999999  0.20995999999999992  1.0000
  O   O14       1.0  0.83105  0.66696  0.04120999999999996  1.0000
  O   O15       1.0  0.8260300000000002  0.76313  0.62852  1.0000
  C   C6        1.0  0.80703  0.82305  0.6940099999999999  1.0000
  O   O16       1.0  0.8814200000000002  0.63031  0.6647599999999998  1.0000
  C   C7        1.0  0.9090400000000001  0.59261  0.7392899999999998  1.0000
  C   C8        1.0  0.9351500000000001  0.82447  0.6730999999999999  1.0000
  Eu  Eu3       1.0  0.12097  0.20357  0.15381  1.0000
  O   O17       1.0  0.14994000000000002  0.04035  0.17245  1.0000
  C   C9        1.0  0.17349  0.33118999999999993  0.12614  1.0000
  O   O18       1.0  0.06341  0.21216000000000002  0.90041  1.0000
  O   O19       1.0  0.09132  0.11198  0.03441  1.0000
  O   O20       1.0  0.07126  0.33907  0.1277  1.0000
  O   O21       1.0  0.16384  0.35387  0.96579  1.0000
  O   O22       1.0  0.15113  0.29315  0.27389  1.0000
  O   O23       1.0  0.13643  0.11919999999999999  0.4051999999999999  1.0000
  C   C10       1.0  0.15371  0.05787  0.33483999999999997  1.0000
  O   O24       1.0  0.07267  0.23192  0.34219  1.0000
  C   C11       1.0  0.0563  0.29553  0.26061  1.0000
  C   C12       1.0  0.06878000000000001  0.14471  0.9064099999999998  1.0000
  Eu  Eu4       1.0  0.6286  0.2718  0.9827999999999999  1.0000
  O   O25       1.0  0.69253  0.17265  0.96955  1.0000
  C   C13       1.0  0.67161  0.37067000000000005  0.19715999999999978  1.0000
  O   O26       1.0  0.55114  0.28182  0.11301000000000005  1.0000
  O   O27       1.0  0.58304  0.19673  0.9550999999999997  1.0000
  O   O28       1.0  0.6051  0.42739999999999995  0.023379999999999956  1.0000
  O   O29       1.0  0.65939  0.32662  0.33834999999999993  1.0000
  O   O30       1.0  0.67368  0.34878  0.007409999999999917  1.0000
  O   O31       1.0  0.6586  0.21544  0.73629  1.0000
  C   C14       1.0  0.67991  0.16133  0.82077  1.0000
  O   O32       1.0  0.6089500000000001  0.36257  0.7609799999999998  1.0000
  C   C15       1.0  0.60084  0.42727000000000004  0.85008  1.0000
  C   C16       1.0  0.5525600000000002  0.23386  0.9997199999999999  1.0000
  C   C17       1.0  0.34295  0.49592  0.17183  1.0000
  C   C18       1.0  0.33032  0.43437000000000003  0.2261  1.0000
  C   C19       1.0  0.31393  0.3603199999999999  0.29318  1.0000
  C   C20       1.0  0.27778  0.35413999999999995  0.23737  1.0000
  C   C21       1.0  0.259  0.28771  0.30681999999999987  1.0000
  C   C22       1.0  0.22517  0.28005  0.26588  1.0000
  C   C23       1.0  0.20951000000000003  0.33924  0.15658999999999995  1.0000
  C   C24       1.0  0.22844  0.40426  0.07685  1.0000
  C   C25       1.0  0.26235  0.41183  0.1165  1.0000
  H   H1        1.0  0.31318000000000007  0.35051999999999994  0.45582  1.0000
  H   H2        1.0  0.32994  0.3159  0.23023  1.0000
  H   H3        1.0  0.27036  0.24162999999999998  0.3954999999999999  1.0000
  H   H4        1.0  0.21101000000000003  0.22829  0.32347  1.0000
  H   H5        1.0  0.21672  0.45009  0.9905999999999999  1.0000
  H   H6        1.0  0.27593  0.46367  0.055949999999999986  1.0000
  C   C26       1.0  0.77519  0.84319  0.6171  1.0000
  C   C27       1.0  0.74824  0.86104  0.55801  1.0000
  C   C28       1.0  0.7153  0.88453  0.49032  1.0000
  C   C29       1.0  0.70406  0.9558700000000001  0.5751  1.0000
  C   C30       1.0  0.70296  0.024350000000000094  0.4499799999999999  1.0000
  C   C31       1.0  0.69415  0.09111999999999999  0.52928  1.0000
  C   C32       1.0  0.68684  0.09057  0.73463  1.0000
  C   C33       1.0  0.68672  0.02186  0.85931  1.0000
  C   C34       1.0  0.6950100000000001  0.9548700000000001  0.77981  1.0000
  H   H7        1.0  0.69594  0.83927  0.53965  1.0000
  H   H8        1.0  0.71848  0.89346  0.32575  1.0000
  H   H9        1.0  0.7102300000000001  0.0263500000000001  0.29235  1.0000
  H   H10       1.0  0.69418  0.14384  0.4317099999999999  1.0000
  H   H11       1.0  0.67949  0.020040000000000002  0.017269999999999897  1.0000
  H   H12       1.0  0.69483  0.9022099999999998  0.87737  1.0000
  C   C35       1.0  0.17526000000000003  0.013290000000000007  0.4594799999999999  1.0000
  C   C36       1.0  0.19402  0.9762999999999998  0.56064  1.0000
  C   C37       1.0  0.21782000000000004  0.93253  0.67915  1.0000
  C   C38       1.0  0.24510000000000004  0.8929299999999999  0.55665  1.0000
  C   C39       1.0  0.27472  0.86829  0.64236  1.0000
  C   C40       1.0  0.30056  0.83101  0.53654  1.0000
  C   C41       1.0  0.29743  0.81785  0.34115  1.0000
  C   C42       1.0  0.26759  0.84102  0.25561  1.0000
  C   C43       1.0  0.24172  0.8781  0.36181  1.0000
  H   H13       1.0  0.20324000000000003  0.8901099999999998  0.78789  1.0000
  H   H14       1.0  0.2302  0.97266  0.7626899999999998  1.0000
  H   H15       1.0  0.278  0.8790300000000001  0.7913999999999998  1.0000
  H   H16       1.0  0.3233  0.8137400000000001  0.60586  1.0000
  H   H17       1.0  0.26428  0.83067  0.10609999999999997  1.0000
  H   H18       1.0  0.21906000000000003  0.8946599999999999  0.2911  1.0000
  C   C44       1.0  0.77578  0.70064  0.20774000000000004  1.0000
  C   C45       1.0  0.74554  0.69015  0.2512399999999997  1.0000
  C   C46       1.0  0.70863  0.67774  0.29796999999999985  1.0000
  C   C47       1.0  0.69951  0.59769  0.27332  1.0000
  C   C48       1.0  0.70538  0.57198  0.08631000000000011  1.0000
  C   C49       1.0  0.69686  0.4978  0.062249999999999917  1.0000
  C   C50       1.0  0.68199  0.4481  0.22377999999999984  1.0000
  C   C51       1.0  0.67601  0.47380000000000005  0.4105399999999997  1.0000
  C   C52       1.0  0.68446  0.54825  0.43432000000000004  1.0000
  H   H19       1.0  0.69532  0.71706  0.19274999999999998  1.0000
  H   H20       1.0  0.70041  0.69147  0.45032  1.0000
  H   H21       1.0  0.71684  0.60942  0.95957  1.0000
  H   H22       1.0  0.70185  0.47957  0.91694  1.0000
  H   H23       1.0  0.66421  0.43734  0.5371199999999998  1.0000
  H   H24       1.0  0.67939  0.56715  0.57917  1.0000
  C   C53       1.0  0.49559  0.68994  0.28786  1.0000
  C   C54       1.0  0.52288  0.69586  0.3493899999999999  1.0000
  C   C55       1.0  0.55638  0.7039  0.41947  1.0000
  C   C56       1.0  0.56647  0.63078  0.53247  1.0000
  C   C57       1.0  0.56244  0.62026  0.74091  1.0000
  C   C58       1.0  0.5723300000000001  0.55257  0.84301  1.0000
  C   C59       1.0  0.58742  0.49524  0.74016  1.0000
  C   C60       1.0  0.5907000000000001  0.50478  0.53245  1.0000
  C   C61       1.0  0.58042  0.57208  0.42921  1.0000
  H   H25       1.0  0.55495  0.7501699999999999  0.51475  1.0000
  H   H26       1.0  0.57579  0.71986  0.29088  1.0000
  H   H27       1.0  0.55169  0.66448  0.82421  1.0000
  H   H28       1.0  0.5689  0.54591  0.0023699999999999832  1.0000
  H   H29       1.0  0.60189  0.4610699999999999  0.44932  1.0000
  H   H30       1.0  0.58383  0.57975  0.2689  1.0000
  C   C62       1.0  0.96074  0.87424  0.56138  1.0000
  C   C63       1.0  0.9821700000000001  0.9174899999999999  0.47162999999999994  1.0000
  C   C64       1.0  0.007779999999999999  0.9719299999999998  0.3659  1.0000
  C   C65       1.0  0.02299  0.015390000000000018  0.51039  1.0000
  C   C66       1.0  0.04474000000000001  0.97994  0.6419599999999998  1.0000
  C   C67       1.0  0.05931  0.02148  0.7744800000000001  1.0000
  C   C68       1.0  0.05204  0.0987  0.77697  1.0000
  C   C69       1.0  0.029180000000000005  0.13276  0.6501199999999999  1.0000
  C   C70       1.0  0.015609999999999999  0.09207  0.5144  1.0000
  H   H31       1.0  0.9944300000000001  0.010359999999999701  0.25999  1.0000
  H   H32       1.0  0.02794  0.94246  0.27851  1.0000
  H   H33       1.0  0.05037  0.92054  0.64115  1.0000
  H   H34       1.0  0.07641  0.9931599999999999  0.87212  1.0000
  H   H35       1.0  0.022040000000000056  0.19153  0.65333  1.0000
  H   H36       1.0  0.99857  0.12030999999999992  0.4153799999999999  1.0000
  C   C71       1.0  0.5226600000000001  0.21558  0.9109899999999997  1.0000
  C   C72       1.0  0.49826000000000004  0.20178  0.82873  1.0000
  C   C73       1.0  0.46876  0.18638  0.72534  1.0000
  C   C74       1.0  0.45937000000000006  0.10386  0.7601999999999999  1.0000
  C   C75       1.0  0.42792  0.08024999999999992  0.86597  1.0000
  C   C76       1.0  0.41911  0.0035300000000000357  0.90122  1.0000
  C   C77       1.0  0.44187  0.94873  0.83351  1.0000
  C   C78       1.0  0.47333  0.97258  0.72566  1.0000
  C   C79       1.0  0.48195  0.04962  0.68831  1.0000
  H   H37       1.0  0.47542  0.20371999999999998  0.56518  1.0000
  H   H38       1.0  0.4471  0.22176000000000004  0.7769299999999999  1.0000
  H   H39       1.0  0.4099400000000001  0.12133  0.92075  1.0000
  H   H40       1.0  0.39462  0.9872199999999999  0.98442  1.0000
  H   H41       1.0  0.49132000000000003  0.93177  0.6707099999999999  1.0000
  H   H42       1.0  0.5063  0.06682000000000002  0.60637  1.0000
  C   C80       1.0  0.02077  0.30672  0.32656999999999997  1.0000
  C   C81       1.0  0.99072  0.31146  0.38329  1.0000
  C   C82       1.0  0.9539300000000001  0.31266  0.44938999999999996  1.0000
  C   C83       1.0  0.94394  0.38706  0.51925  1.0000
  C   C84       1.0  0.9234  0.43731  0.41031  1.0000
  C   C85       1.0  0.91248  0.5046  0.48113999999999996  1.0000
  C   C86       1.0  0.92157  0.52239  0.663  1.0000
  C   C87       1.0  0.9421099999999999  0.47208  0.77194  1.0000
  C   C88       1.0  0.95305  0.40471  0.7006899999999998  1.0000
  H   H43       1.0  0.9477799999999998  0.26643  0.57255  1.0000
  H   H44       1.0  0.9397  0.3011099999999999  0.32428999999999997  1.0000
  H   H45       1.0  0.91521  0.4237  0.27236  1.0000
  H   H46       1.0  0.89644  0.54236  0.3954099999999999  1.0000
  H   H47       1.0  0.94879  0.48325999999999997  0.91521  1.0000
  H   H48       1.0  0.96771  0.36561  0.79089  1.0000
