data_image0
_chemical_formula_structural       EuOCO6COC2EuOCO6COC2EuOCO6COC2EuOCO6COC10OCH10C8OCH10C8OCH10C8OCH10C8OCH10C8OCH10C8OCH10C8OCH10
_chemical_formula_sum              "Eu4 O40 C88 H80"
_cell_length_a       28.8949
_cell_length_b       19.9351
_cell_length_c       8.2917
_cell_angle_alpha    86.1013
_cell_angle_beta     88.0777
_cell_angle_gamma    93.4381

_symmetry_space_group_name_H-M    'P 1'
_symmetry_Int_Tables_number       1

loop_
  _symmetry_equiv_pos_as_xyz
  'x,y,z'

loop_
  _atom_site_type_symbol
  _atom_site_label
  _atom_site_symmetry_multiplicity
  _atom_site_fract_x
  _atom_site_fract_y
  _atom_site_fract_z
  _atom_site_occupancy
  Eu  Eu1       1.0  0.34863  0.75497  0.31001  1.0000
  O   O1        1.0  0.23586  0.83665  0.55339  1.0000
  C   C1        1.0  0.29615  0.639  0.14981  1.0000
  O   O2        1.0  0.43263  0.8059  0.1004  1.0000
  O   O3        1.0  0.4104099999999999  0.82698  0.35433  1.0000
  O   O4        1.0  0.44002  0.6908099999999999  0.35254999999999986  1.0000
  O   O5        1.0  0.26425  0.60745  0.09047999999999999  1.0000
  O   O6        1.0  0.28601  0.6853  0.26247  1.0000
  O   O7        1.0  0.3068  0.8007499999999999  0.50888  1.0000
  C   C2        1.0  0.27014  0.83954  0.4628099999999999  1.0000
  O   O8        1.0  0.37324  0.67947  0.5036  1.0000
  C   C3        1.0  0.42088  0.67397  0.48361  1.0000
  C   C4        1.0  0.43795999999999996  0.8409999999999997  0.21397  1.0000
  Eu  Eu2       1.0  0.91683  0.77524  0.7122  1.0000
  O   O9        1.0  0.83192  0.8476799999999999  0.8011699999999998  1.0000
  C   C5        1.0  0.8231799999999999  0.6907599999999999  0.7273299999999998  1.0000
  O   O10       1.0  0.013710000000000106  0.85695  0.038489999999999906  1.0000
  O   O11       1.0  0.98153  0.82973  0.806  1.0000
  O   O12       1.0  0.9938699999999999  0.7074  0.29996  1.0000
  O   O13       1.0  0.83317  0.6901  0.86934  1.0000
  O   O14       1.0  0.85407  0.72116  0.60809  1.0000
  O   O15       1.0  0.8903799999999998  0.8749299999999999  0.61572  1.0000
  C   C6        1.0  0.84772  0.8860200000000001  0.68912  1.0000
  O   O16       1.0  0.95667  0.7694  0.47126  1.0000
  C   C7        1.0  0.9784199999999997  0.7107899999999998  0.4374  1.0000
  C   C8        1.0  0.97814  0.84617  0.96654  1.0000
  Eu  Eu3       1.0  0.10864  0.26267  0.22181  1.0000
  O   O17       1.0  0.13144  0.06484  0.44102999999999987  1.0000
  C   C9        1.0  0.20388  0.33982999999999997  0.1757  1.0000
  O   O18       1.0  0.06313  0.1399  0.08045  1.0000
  O   O19       1.0  0.03448  0.23677  0.15214  1.0000
  O   O20       1.0  0.11682  0.41235  0.3011  1.0000
  O   O21       1.0  0.18158999999999995  0.3637699999999999  0.06616  1.0000
  O   O22       1.0  0.18216  0.29325999999999997  0.29032  1.0000
  O   O23       1.0  0.10375  0.16742  0.39551  1.0000
  C   C10       1.0  0.13842  0.12193  0.37932999999999995  1.0000
  O   O24       1.0  0.08131000000000002  0.31881999999999994  0.43174  1.0000
  C   C11       1.0  0.10152999999999997  0.38405999999999996  0.42863  1.0000
  C   C12       1.0  0.029  0.17215  0.09995999999999997  1.0000
  Eu  Eu4       1.0  0.6036  0.25494  0.80128  1.0000
  O   O25       1.0  0.6429599999999999  0.12924  0.58373  1.0000
  C   C13       1.0  0.61582  0.39751999999999993  0.91445  1.0000
  O   O26       1.0  0.53407  0.15752999999999995  0.9706399999999998  1.0000
  O   O27       1.0  0.5618  0.16563  0.71179  1.0000
  O   O28       1.0  0.52507  0.33707  0.6331  1.0000
  O   O29       1.0  0.57402  0.38492999999999994  0.93286  1.0000
  O   O30       1.0  0.64449  0.34546  0.88977  1.0000
  O   O31       1.0  0.67265  0.21612999999999996  0.71655  1.0000
  C   C14       1.0  0.66971  0.14854  0.68389  1.0000
  O   O32       1.0  0.59787  0.31415  0.55952  1.0000
  C   C15       1.0  0.56239  0.35788  0.57035  1.0000
  C   C16       1.0  0.53451  0.13365999999999997  0.83889  1.0000
  C   C17       1.0  0.34564  0.62685  0.10338999999999997  1.0000
  C   C18       1.0  0.35716  0.55438  0.15529999999999994  1.0000
  C   C19       1.0  0.3408  0.5033899999999999  0.03367  1.0000
  C   C20       1.0  0.32026  0.43863  0.11852999999999997  1.0000
  C   C21       1.0  0.27284  0.42010999999999993  0.10867  1.0000
  C   C22       1.0  0.25361  0.3597399999999999  0.18729  1.0000
  C   C23       1.0  0.28235  0.31772  0.2756999999999999  1.0000
  C   C24       1.0  0.32991  0.3355099999999999  0.2846999999999999  1.0000
  O   O33       1.0  0.3592  0.2935199999999999  0.369  1.0000
  C   C25       1.0  0.3485699999999999  0.39602999999999994  0.20681  1.0000
  H   H1        1.0  0.36932  0.66218  0.16362999999999994  1.0000
  H   H2        1.0  0.35194  0.63757  0.97094  1.0000
  H   H3        1.0  0.34196  0.54039  0.27919  1.0000
  H   H4        1.0  0.39538  0.55275  0.16486999999999993  1.0000
  H   H5        1.0  0.31509  0.5251  0.9515599999999999  1.0000
  H   H6        1.0  0.37067999999999995  0.4920299999999999  0.95423  1.0000
  H   H7        1.0  0.25086  0.4529499999999999  0.040719999999999985  1.0000
  H   H8        1.0  0.26802  0.27062  0.33506999999999987  1.0000
  H   H9        1.0  0.34281  0.25026  0.4188099999999999  1.0000
  H   H10       1.0  0.38522  0.40989999999999993  0.21409999999999996  1.0000
  C   C26       1.0  0.82219  0.9462299999999999  0.63297  1.0000
  C   C27       1.0  0.7716599999999999  0.9267199999999999  0.59246  1.0000
  C   C28       1.0  0.73787  0.92162  0.74133  1.0000
  C   C29       1.0  0.73105  0.98991  0.80287  1.0000
  C   C30       1.0  0.7034899999999997  0.03546  0.71898  1.0000
  C   C31       1.0  0.69932  0.10064999999999999  0.7697799999999998  1.0000
  C   C32       1.0  0.72309  0.11998999999999999  0.906  1.0000
  C   C33       1.0  0.74978  0.0742  0.99247  1.0000
  O   O34       1.0  0.77315  0.09248999999999999  0.12895999999999994  1.0000
  C   C34       1.0  0.75338  0.009469999999999998  0.94144  1.0000
  H   H11       1.0  0.84075  0.9709900000000002  0.5228799999999998  1.0000
  H   H12       1.0  0.8234899999999998  0.98341  0.7266999999999998  1.0000
  H   H13       1.0  0.76993  0.87773  0.5354999999999998  1.0000
  H   H14       1.0  0.76011  0.9650399999999999  0.50129  1.0000
  H   H15       1.0  0.70374  0.8990399999999998  0.7079  1.0000
  H   H16       1.0  0.75032  0.88663  0.83834  1.0000
  H   H17       1.0  0.68583  0.020200000000000003  0.6129399999999998  1.0000
  H   H18       1.0  0.7207  0.1702  0.9461499999999998  1.0000
  H   H19       1.0  0.76887  0.14062999999999998  0.15529  1.0000
  H   H20       1.0  0.77455  0.9748899999999999  0.008189999999999918  1.0000
  C   C35       1.0  0.18435  0.14422999999999997  0.29567  1.0000
  C   C36       1.0  0.21871999999999994  0.0885  0.28867  1.0000
  C   C37       1.0  0.20722  0.038279999999999995  0.16125  1.0000
  C   C38       1.0  0.24153999999999992  0.9841599999999998  0.16816999999999993  1.0000
  C   C39       1.0  0.23796  0.9338  0.29527  1.0000
  C   C40       1.0  0.2727  0.8876499999999999  0.3168999999999999  1.0000
  C   C41       1.0  0.31074  0.89229  0.20589  1.0000
  C   C42       1.0  0.31407999999999997  0.9414499999999998  0.07578  1.0000
  O   O35       1.0  0.3521899999999999  0.94699  0.9662599999999999  1.0000
  C   C43       1.0  0.27943  0.9870999999999999  0.05745  1.0000
  H   H21       1.0  0.20078  0.18302999999999997  0.36821  1.0000
  H   H22       1.0  0.17868  0.16676  0.17224  1.0000
  H   H23       1.0  0.22037  0.061760000000000016  0.41037  1.0000
  H   H24       1.0  0.25384  0.1129  0.25792  1.0000
  H   H25       1.0  0.17147  0.014850000000000028  0.18261999999999995  1.0000
  H   H26       1.0  0.20874  0.06558  0.03955  1.0000
  H   H27       1.0  0.20882  0.9329199999999997  0.38124  1.0000
  H   H28       1.0  0.33833999999999986  0.85912  0.22005  1.0000
  H   H29       1.0  0.376  0.91263  0.98991  1.0000
  H   H30       1.0  0.28281  0.02617999999999999  0.95987  1.0000
  C   C44       1.0  0.77728  0.6601999999999999  0.6791299999999998  1.0000
  C   C45       1.0  0.77306  0.58323  0.7148499999999998  1.0000
  C   C46       1.0  0.75548  0.5609399999999999  0.88905  1.0000
  C   C47       1.0  0.70341  0.54734  0.9008299999999998  1.0000
  C   C48       1.0  0.68407  0.48091  0.90506  1.0000
  C   C49       1.0  0.63569  0.46748999999999996  0.91427  1.0000
  C   C50       1.0  0.60672  0.5215  0.91683  1.0000
  C   C51       1.0  0.62572  0.5879999999999999  0.9122399999999998  1.0000
  O   O36       1.0  0.5974699999999998  0.64247  0.9116199999999998  1.0000
  C   C52       1.0  0.67387  0.6006  0.9066  1.0000
  H   H31       1.0  0.77408  0.67119  0.54668  1.0000
  H   H32       1.0  0.74902  0.6852099999999999  0.7400799999999997  1.0000
  H   H33       1.0  0.80758  0.56305  0.69178  1.0000
  H   H34       1.0  0.7494299999999999  0.56021  0.6279399999999998  1.0000
  H   H35       1.0  0.77225  0.51397  0.92781  1.0000
  H   H36       1.0  0.76618  0.59871  0.9751  1.0000
  H   H37       1.0  0.7067999999999999  0.43972  0.89984  1.0000
  H   H38       1.0  0.5693899999999997  0.51188  0.92102  1.0000
  H   H39       1.0  0.56313  0.6287999999999999  0.9107499999999997  1.0000
  H   H40       1.0  0.68789  0.6520499999999999  0.90694  1.0000
  C   C53       1.0  0.44909999999999994  0.6528899999999999  0.62549  1.0000
  C   C54       1.0  0.47342  0.5872599999999999  0.60554  1.0000
  C   C55       1.0  0.50555  0.59017  0.4528099999999999  1.0000
  C   C56       1.0  0.54442  0.54314  0.46943  1.0000
  C   C57       1.0  0.53493  0.47369000000000006  0.5066499999999999  1.0000
  C   C58       1.0  0.5712999999999998  0.42996  0.51758  1.0000
  C   C59       1.0  0.61721  0.45609  0.48686  1.0000
  C   C60       1.0  0.62692  0.5252499999999999  0.44882  1.0000
  O   O37       1.0  0.67241  0.55216  0.41992999999999997  1.0000
  C   C61       1.0  0.59064  0.56836  0.44176  1.0000
  H   H41       1.0  0.42595999999999995  0.6460699999999999  0.7358799999999998  1.0000
  H   H42       1.0  0.47551  0.69423  0.6446099999999998  1.0000
  H   H43       1.0  0.44682  0.5448299999999999  0.60225  1.0000
  H   H44       1.0  0.49396  0.5774999999999999  0.7148  1.0000
  H   H45       1.0  0.48477  0.5763799999999999  0.34822  1.0000
  H   H46       1.0  0.52033  0.6426599999999999  0.4254999999999999  1.0000
  H   H47       1.0  0.49930999999999987  0.45414999999999994  0.52834  1.0000
  H   H48       1.0  0.64558  0.42310999999999993  0.49552999999999997  1.0000
  H   H49       1.0  0.69637  0.51706  0.42495  1.0000
  H   H50       1.0  0.59867  0.62175  0.41382  1.0000
  C   C62       1.0  0.9319  0.8534399999999999  0.049919999999999964  1.0000
  C   C63       1.0  0.92763  0.92567  0.10113  1.0000
  C   C64       1.0  0.9238599999999998  0.9764499999999999  0.95478  1.0000
  C   C65       1.0  0.93064  0.04795999999999999  0.0018199999999999328  1.0000
  C   C66       1.0  0.97534  0.07557999999999998  0.02911  1.0000
  C   C67       1.0  0.9821099999999999  0.14261  0.07041  1.0000
  C   C68       1.0  0.94348  0.18178999999999995  0.08501  1.0000
  C   C69       1.0  0.89875  0.15455999999999998  0.05724999999999999  1.0000
  O   O38       1.0  0.86007  0.19293  0.07028  1.0000
  C   C70       1.0  0.89259  0.08796999999999998  0.0154  1.0000
  H   H51       1.0  0.92833  0.81787  0.15925  1.0000
  H   H52       1.0  0.90345  0.8396199999999998  0.9698899999999999  1.0000
  H   H53       1.0  0.95787  0.9404099999999999  0.17364999999999994  1.0000
  H   H54       1.0  0.89604  0.92666  0.18113  1.0000
  H   H55       1.0  0.95008  0.9683499999999999  0.8580499999999998  1.0000
  H   H56       1.0  0.8892  0.9679999999999999  0.9035099999999998  1.0000
  H   H57       1.0  0.004700000000000001  0.044550000000000006  0.017800000000000038  1.0000
  H   H58       1.0  0.94805  0.23346999999999996  0.11723  1.0000
  H   H59       1.0  0.86784  0.24033999999999997  0.10237999999999997  1.0000
  H   H60       1.0  0.85808  0.06732  0.99348  1.0000
  C   C71       1.0  0.50471  0.07145  0.81235  1.0000
  C   C72       1.0  0.53336  0.01218  0.76623  1.0000
  C   C73       1.0  0.5636199999999999  0.98521  0.9025799999999999  1.0000
  C   C74       1.0  0.53521  0.96724  0.05672  1.0000
  C   C75       1.0  0.50428  0.9099899999999997  0.07032999999999998  1.0000
  C   C76       1.0  0.47207000000000005  0.89943  0.20161  1.0000
  C   C77       1.0  0.47014  0.9482199999999997  0.31544  1.0000
  C   C78       1.0  0.50099  0.005509999999999905  0.30217  1.0000
  O   O39       1.0  0.49643  0.05739  0.4049299999999999  1.0000
  C   C79       1.0  0.53484  0.013059999999999997  0.17737  1.0000
  H   H61       1.0  0.48101999999999995  0.08422999999999997  0.7148599999999998  1.0000
  H   H62       1.0  0.4818099999999999  0.056479999999999995  0.9204899999999999  1.0000
  H   H63       1.0  0.55621  0.02766  0.65779  1.0000
  H   H64       1.0  0.50898  0.9705099999999999  0.7325699999999998  1.0000
  H   H65       1.0  0.58052  0.9400999999999999  0.86339  1.0000
  H   H66       1.0  0.59192  0.0237  0.9222799999999999  1.0000
  H   H67       1.0  0.50445  0.8752699999999999  0.97544  1.0000
  H   H68       1.0  0.44409  0.94261  0.4128099999999999  1.0000
  H   H69       1.0  0.46632  0.051909999999999894  0.4718799999999999  1.0000
  H   H70       1.0  0.55849  0.05745999999999999  0.16593  1.0000
  C   C80       1.0  0.10662  0.41767999999999994  0.58402  1.0000
  C   C81       1.0  0.08388  0.4851199999999999  0.58332  1.0000
  C   C82       1.0  0.030890000000000004  0.47751  0.5695699999999998  1.0000
  C   C83       1.0  0.00951  0.53994  0.62212  1.0000
  C   C84       1.0  0.99985  0.59235  0.50821  1.0000
  C   C85       1.0  0.98454  0.65376  0.55895  1.0000
  C   C86       1.0  0.97856  0.66081  0.7252099999999998  1.0000
  C   C87       1.0  0.9863699999999999  0.6078  0.83932  1.0000
  O   O40       1.0  0.9798799999999999  0.61423  0.004999999999999893  1.0000
  C   C88       1.0  0.002249999999999997  0.54802  0.7876  1.0000
  H   H71       1.0  0.14426  0.42664  0.60376  1.0000
  H   H72       1.0  0.09168  0.38354000000000005  0.68668  1.0000
  H   H73       1.0  0.09925999999999997  0.5198699999999999  0.48244  1.0000
  H   H74       1.0  0.09257  0.50796  0.6983  1.0000
  H   H75       1.0  0.02221999999999991  0.46881  0.44268999999999986  1.0000
  H   H76       1.0  0.01607  0.43289  0.6463  1.0000
  H   H77       1.0  0.005640000000000087  0.5859  0.3803199999999999  1.0000
  H   H78       1.0  0.96975  0.70791  0.76751  1.0000
  H   H79       1.0  0.96784  0.65907  0.030820000000000066  1.0000
  H   H80       1.0  0.009800000000000003  0.50854  0.8777399999999997  1.0000
