data_image0
_chemical_formula_structural       EuOCO6COC2EuOCO6COC2EuOCO6COC2EuOCO6COC15H18C13H18C13H18C13H18C13H18C13H18C13H18C13H18
_chemical_formula_sum              "Eu4 O32 C120 H144"
_cell_length_a       35.7846
_cell_length_b       21.1425
_cell_length_c       11.3147
_cell_angle_alpha    90.6871
_cell_angle_beta     91.0779
_cell_angle_gamma    90.50890000000001

_space_group_name_H-M_alt    "P 1"
_space_group_IT_number       1

loop_
  _space_group_symop_operation_xyz
  'x, y, z'

loop_
  _atom_site_type_symbol
  _atom_site_label
  _atom_site_symmetry_multiplicity
  _atom_site_fract_x
  _atom_site_fract_y
  _atom_site_fract_z
  _atom_site_occupancy
  Eu  Eu1       1.0  0.39218  0.73608  0.14614  1.0000
  O   O1        1.0  0.34434  0.84644  0.08431  1.0000
  C   C1        1.0  0.32967000000000013  0.65469  0.04317  1.0000
  O   O2        1.0  0.45293  0.78719  0.99445  1.0000
  O   O3        1.0  0.4270100000000001  0.82647  0.15955  1.0000
  O   O4        1.0  0.4661  0.67747  0.20863  1.0000
  O   O5        1.0  0.3252  0.70718  0.00175  1.0000
  O   O6        1.0  0.3567  0.64637  0.13145  1.0000
  O   O7        1.0  0.34637  0.78575  0.24704  1.0000
  C   C2        1.0  0.3340900000000001  0.8382000000000001  0.18511  1.0000
  O   O8        1.0  0.41673  0.70362  0.32095  1.0000
  C   C3        1.0  0.45315  0.68281  0.30731  1.0000
  C   C4        1.0  0.44829  0.8328399999999999  0.05911  1.0000
  Eu  Eu2       1.0  0.8795200000000002  0.76372  0.7096700000000001  1.0000
  O   O9        1.0  0.7999400000000001  0.80212  0.68087  1.0000
  C   C5        1.0  0.8510600000000003  0.63139  0.77037  1.0000
  O   O10       1.0  0.9479799999999999  0.78993  0.8672  1.0000
  O   O11       1.0  0.92026  0.84697  0.72265  1.0000
  O   O12       1.0  0.9367  0.66519  0.74659  1.0000
  O   O13       1.0  0.86739  0.64571  0.86269  1.0000
  O   O14       1.0  0.84023  0.67845  0.69217  1.0000
  O   O15       1.0  0.84849  0.8110900000000001  0.55725  1.0000
  C   C6        1.0  0.8110100000000002  0.81887  0.58467  1.0000
  O   O16       1.0  0.91879  0.71564  0.58091  1.0000
  C   C7        1.0  0.9395800000000001  0.67024  0.64006  1.0000
  C   C8        1.0  0.9508200000000001  0.83189  0.7946600000000001  1.0000
  Eu  Eu3       1.0  0.114  0.25307  0.24172  1.0000
  O   O17       1.0  0.15041000000000002  0.12558  0.2132  1.0000
  C   C9        1.0  0.1892  0.33073  0.26273  1.0000
  O   O18       1.0  0.04461  0.23051000000000002  0.0962  1.0000
  O   O19       1.0  0.07554  0.16721  0.22288  1.0000
  O   O20       1.0  0.07969  0.37906  0.30686  1.0000
  O   O21       1.0  0.20051  0.27739  0.27929  1.0000
  O   O22       1.0  0.15105  0.34192  0.25495  1.0000
  O   O23       1.0  0.15149  0.19607  0.36549000000000004  1.0000
  C   C10       1.0  0.15974  0.13737  0.31554  1.0000
  O   O24       1.0  0.08215  0.28606  0.40301000000000003  1.0000
  C   C11       1.0  0.07699  0.35116  0.40014  1.0000
  C   C12       1.0  0.04988000000000001  0.17711  0.13166  1.0000
  Eu  Eu4       1.0  0.6143500000000002  0.24864  0.8005500000000001  1.0000
  O   O25       1.0  0.6374800000000002  0.12085  0.85124  1.0000
  C   C13       1.0  0.6713300000000001  0.34792  0.8938300000000001  1.0000
  O   O26       1.0  0.54671  0.24668  0.96013  1.0000
  O   O27       1.0  0.5608400000000002  0.18989  0.79631  1.0000
  O   O28       1.0  0.57125  0.36091  0.81027  1.0000
  O   O29       1.0  0.6492800000000002  0.34409  0.97401  1.0000
  O   O30       1.0  0.66757  0.30805  0.79581  1.0000
  O   O31       1.0  0.64153  0.17533  0.68197  1.0000
  C   C14       1.0  0.64997  0.12359  0.7519800000000001  1.0000
  O   O32       1.0  0.59052  0.30711  0.65021  1.0000
  C   C15       1.0  0.5721700000000001  0.35742  0.70287  1.0000
  C   C16       1.0  0.5360400000000001  0.21053  0.8814100000000001  1.0000
  C   C17       1.0  0.30776000000000003  0.59945  0.9934000000000001  1.0000
  C   C18       1.0  0.27742000000000006  0.57565  0.07643  1.0000
  C   C19       1.0  0.29282  0.54121  0.18645000000000003  1.0000
  C   C20       1.0  0.2675200000000001  0.48487  0.21592  1.0000
  C   C21       1.0  0.27279  0.42582  0.15757  1.0000
  C   C22       1.0  0.30777  0.41537999999999997  0.08599  1.0000
  C   C23       1.0  0.24525000000000002  0.3775  0.16538  1.0000
  C   C24       1.0  0.24563000000000001  0.32214  0.07833  1.0000
  C   C25       1.0  0.21615  0.38369  0.24789  1.0000
  C   C26       1.0  0.21255000000000004  0.44063  0.31441  1.0000
  C   C27       1.0  0.18332  0.44631  0.40961  1.0000
  C   C28       1.0  0.23679  0.4927  0.29247  1.0000
  C   C29       1.0  0.23062  0.55651  0.35208  1.0000
  H   H1        1.0  0.29375  0.61425  0.9097100000000001  1.0000
  H   H2        1.0  0.32718  0.56083  0.9702500000000001  1.0000
  H   H3        1.0  0.25968  0.61587  0.10406  1.0000
  H   H4        1.0  0.25912  0.54292  0.0231  1.0000
  H   H5        1.0  0.29559  0.57526  0.26161  1.0000
  H   H6        1.0  0.322  0.52588  0.17299  1.0000
  H   H7        1.0  0.31051  0.3669  0.04971  1.0000
  H   H8        1.0  0.33286  0.42288  0.14397  1.0000
  H   H9        1.0  0.3084600000000001  0.44853  0.01075  1.0000
  H   H10       1.0  0.24923000000000003  0.34001  0.98729  1.0000
  H   H11       1.0  0.2686  0.28931  0.10116  1.0000
  H   H12       1.0  0.21917000000000003  0.29468  0.07416  1.0000
  H   H13       1.0  0.16009  0.47675999999999996  0.37817  1.0000
  H   H14       1.0  0.19618000000000005  0.46704  0.4915  1.0000
  H   H15       1.0  0.17145000000000005  0.40030000000000004  0.43668000000000007  1.0000
  H   H16       1.0  0.2529  0.56553  0.41991  1.0000
  H   H17       1.0  0.20335  0.56085  0.39565  1.0000
  H   H18       1.0  0.23088000000000003  0.59479  0.28612  1.0000
  C   C30       1.0  0.7842300000000002  0.84554  0.49445  1.0000
  C   C31       1.0  0.76924  0.91078  0.53059  1.0000
  C   C32       1.0  0.74253  0.9075100000000001  0.63567  1.0000
  C   C33       1.0  0.7207  0.96872  0.65294  1.0000
  C   C34       1.0  0.6857500000000002  0.97723  0.59304  1.0000
  C   C35       1.0  0.6720200000000002  0.93139  0.49664  1.0000
  C   C36       1.0  0.66261  0.028739999999999998  0.62439  1.0000
  C   C37       1.0  0.6239700000000002  0.03419  0.56695  1.0000
  C   C38       1.0  0.67527  0.07355  0.71034  1.0000
  C   C39       1.0  0.71152  0.06878  0.7620600000000001  1.0000
  C   C40       1.0  0.7262400000000002  0.1198  0.84737  1.0000
  C   C41       1.0  0.73409  0.01582  0.73471  1.0000
  C   C42       1.0  0.77234  0.0082  0.79379  1.0000
  H   H19       1.0  0.79903  0.8505  0.4094500000000001  1.0000
  H   H20       1.0  0.76069  0.8117  0.4784900000000001  1.0000
  H   H21       1.0  0.79313  0.9429100000000001  0.55205  1.0000
  H   H22       1.0  0.7544500000000001  0.9309800000000001  0.45278  1.0000
  H   H23       1.0  0.75874  0.89582  0.7165  1.0000
  H   H24       1.0  0.723  0.8666500000000001  0.62572  1.0000
  H   H25       1.0  0.6472200000000001  0.9047700000000001  0.52723  1.0000
  H   H26       1.0  0.6928500000000002  0.8965300000000002  0.4677700000000001  1.0000
  H   H27       1.0  0.6643600000000002  0.95784  0.4158  1.0000
  H   H28       1.0  0.6266  0.04174000000000011  0.47054  1.0000
  H   H29       1.0  0.60755  0.9902900000000001  0.58182  1.0000
  H   H30       1.0  0.6071500000000001  0.0737  0.60175  1.0000
  H   H31       1.0  0.75215  0.14133  0.81238  1.0000
  H   H32       1.0  0.7320400000000002  0.09893  0.93538  1.0000
  H   H33       1.0  0.70686  0.15956  0.8612600000000001  1.0000
  H   H34       1.0  0.7715200000000001  0.96855  0.85703  1.0000
  H   H35       1.0  0.7826  0.050069999999999996  0.84424  1.0000
  H   H36       1.0  0.7937500000000002  0.99897  0.72644  1.0000
  C   C43       1.0  0.17879  0.0882  0.38937  1.0000
  C   C44       1.0  0.21327000000000002  0.06105  0.32872  1.0000
  C   C45       1.0  0.23677  0.02113  0.41494  1.0000
  C   C46       1.0  0.26177  0.97414  0.3505  1.0000
  C   C47       1.0  0.29814  0.9925800000000001  0.31419  1.0000
  C   C48       1.0  0.31233  0.0604  0.328  1.0000
  C   C49       1.0  0.32230000000000003  0.947  0.26454  1.0000
  C   C50       1.0  0.36251  0.9658  0.23862  1.0000
  C   C51       1.0  0.30927  0.88446  0.24221  1.0000
  C   C52       1.0  0.2726100000000001  0.86619  0.27369  1.0000
  C   C53       1.0  0.25837  0.7993099999999999  0.24768  1.0000
  C   C54       1.0  0.24899  0.9108200000000001  0.32941  1.0000
  C   C55       1.0  0.20987000000000006  0.89163  0.36702  1.0000
  H   H37       1.0  0.15852000000000005  0.0492  0.40504  1.0000
  H   H38       1.0  0.18701  0.10967  0.47636  1.0000
  H   H39       1.0  0.20376  0.03151  0.25183  1.0000
  H   H40       1.0  0.23057000000000002  0.10031000000000001  0.29448  1.0000
  H   H41       1.0  0.21811  0.99644  0.47652  1.0000
  H   H42       1.0  0.25336  0.05222  0.47601000000000004  1.0000
  H   H43       1.0  0.3353000000000001  0.06267  0.39528  1.0000
  H   H44       1.0  0.2911900000000001  0.09515  0.35431  1.0000
  H   H45       1.0  0.3228900000000001  0.07732  0.24219000000000002  1.0000
  H   H46       1.0  0.36303  0.0001799999999999999  0.16544  1.0000
  H   H47       1.0  0.37606  0.98727  0.31862  1.0000
  H   H48       1.0  0.3805600000000001  0.92585  0.21368000000000004  1.0000
  H   H49       1.0  0.23301  0.80098  0.18989  1.0000
  H   H50       1.0  0.2518  0.7753999999999999  0.33176  1.0000
  H   H51       1.0  0.27816  0.7686800000000001  0.20032  1.0000
  H   H52       1.0  0.20863  0.8916699999999999  0.46499000000000007  1.0000
  H   H53       1.0  0.2006  0.8440200000000001  0.33704  1.0000
  H   H54       1.0  0.189  0.9250400000000001  0.33054  1.0000
  C   C56       1.0  0.84502  0.56319  0.7368600000000001  1.0000
  C   C57       1.0  0.80449  0.54145  0.75315  1.0000
  C   C58       1.0  0.7957600000000002  0.52874  0.88367  1.0000
  C   C59       1.0  0.76333  0.4815999999999999  0.89346  1.0000
  C   C60       1.0  0.76977  0.41566  0.87746  1.0000
  C   C61       1.0  0.8084100000000001  0.39009  0.85062  1.0000
  C   C62       1.0  0.73977  0.37191  0.88713  1.0000
  C   C63       1.0  0.74775  0.30133  0.8826900000000002  1.0000
  C   C64       1.0  0.7028400000000002  0.39397000000000004  0.9001600000000002  1.0000
  C   C65       1.0  0.69597  0.45968  0.9126900000000001  1.0000
  C   C66       1.0  0.6562300000000002  0.48428  0.9178500000000002  1.0000
  C   C67       1.0  0.72654  0.50322  0.91587  1.0000
  C   C68       1.0  0.72032  0.57309  0.9415100000000001  1.0000
  H   H55       1.0  0.85221  0.55714  0.64245  1.0000
  H   H56       1.0  0.8644900000000001  0.53282  0.7881300000000001  1.0000
  H   H57       1.0  0.78482  0.57718  0.71721  1.0000
  H   H58       1.0  0.80006  0.49765  0.69912  1.0000
  H   H59       1.0  0.7906200000000002  0.57479  0.92754  1.0000
  H   H60       1.0  0.8204100000000002  0.51089  0.93357  1.0000
  H   H61       1.0  0.8192300000000001  0.36284  0.9269  1.0000
  H   H62       1.0  0.8298100000000003  0.42602  0.8304700000000002  1.0000
  H   H63       1.0  0.8067000000000002  0.35878  0.7712900000000001  1.0000
  H   H64       1.0  0.7546600000000002  0.28689  0.79105  1.0000
  H   H65       1.0  0.7713800000000002  0.28988  0.94338  1.0000
  H   H66       1.0  0.72414  0.27165  0.91231  1.0000
  H   H67       1.0  0.65214  0.52175  0.85097  1.0000
  H   H68       1.0  0.6509400000000001  0.50362  0.007649999999999935  1.0000
  H   H69       1.0  0.6343500000000002  0.4484  0.8969500000000001  1.0000
  H   H70       1.0  0.73682  0.58766  0.02153000000000005  1.0000
  H   H71       1.0  0.6911600000000001  0.5857900000000001  0.9607100000000001  1.0000
  H   H72       1.0  0.72899  0.60162  0.8647800000000001  1.0000
  C   C69       1.0  0.4763200000000001  0.66855  0.4149  1.0000
  C   C70       1.0  0.48560000000000003  0.59809  0.42221  1.0000
  C   C71       1.0  0.50118  0.5835  0.54615  1.0000
  C   C72       1.0  0.51819  0.51795  0.55544  1.0000
  C   C73       1.0  0.55723  0.51014  0.53879  1.0000
  C   C74       1.0  0.58071  0.56102  0.48094000000000003  1.0000
  C   C75       1.0  0.5750600000000001  0.45501999999999987  0.58082  1.0000
  C   C76       1.0  0.6174  0.45039000000000007  0.57567  1.0000
  C   C77       1.0  0.55356  0.40651  0.63211  1.0000
  C   C78       1.0  0.51403  0.40966  0.63074  1.0000
  C   C79       1.0  0.49095000000000005  0.35358  0.67138  1.0000
  C   C80       1.0  0.49623000000000006  0.46612  0.59456  1.0000
  C   C81       1.0  0.45394000000000007  0.47254  0.60104  1.0000
  H   H73       1.0  0.5025300000000001  0.69711  0.41398  1.0000
  H   H74       1.0  0.46031  0.68294  0.4941  1.0000
  H   H75       1.0  0.45988  0.56962  0.40446000000000004  1.0000
  H   H76       1.0  0.5061  0.58566  0.35334  1.0000
  H   H77       1.0  0.47877000000000003  0.58996  0.61127  1.0000
  H   H78       1.0  0.5221400000000003  0.6199  0.57456  1.0000
  H   H79       1.0  0.60051  0.5825  0.5469700000000001  1.0000
  H   H80       1.0  0.56438  0.59958  0.44084  1.0000
  H   H81       1.0  0.59663  0.54004  0.40717  1.0000
  H   H82       1.0  0.62641  0.45231000000000005  0.48254  1.0000
  H   H83       1.0  0.6305300000000003  0.49012000000000006  0.62669  1.0000
  H   H84       1.0  0.6288600000000001  0.40621000000000007  0.61232  1.0000
  H   H85       1.0  0.47121  0.33824  0.59955  1.0000
  H   H86       1.0  0.47522  0.36682  0.75153  1.0000
  H   H87       1.0  0.50771  0.31132  0.69279  1.0000
  H   H88       1.0  0.4465900000000001  0.5068  0.67164  1.0000
  H   H89       1.0  0.43884  0.42823  0.62066  1.0000
  H   H90       1.0  0.44235  0.4882000000000001  0.51501  1.0000
  C   C82       1.0  0.9875700000000001  0.86518  0.779  1.0000
  C   C83       1.0  0.9984900000000001  0.90699  0.8857800000000001  1.0000
  C   C84       1.0  0.97238  0.9640899999999999  0.89916  1.0000
  C   C85       1.0  0.9927000000000001  0.01938  0.96109  1.0000
  C   C86       1.0  0.0188  0.05655  0.89765  1.0000
  C   C87       1.0  0.02723  0.04315  0.76823  1.0000
  C   C88       1.0  0.03825000000000001  0.10715  0.95533  1.0000
  C   C89       1.0  0.06817  0.14314  0.88862  1.0000
  C   C90       1.0  0.030350000000000002  0.12270000000000002  0.07425  1.0000
  C   C91       1.0  0.0045200000000000014  0.08598  0.13828  1.0000
  C   C92       1.0  0.9954400000000001  0.10366000000000002  0.26519  1.0000
  C   C93       1.0  0.98641  0.03303  0.08264  1.0000
  C   C94       1.0  0.96046  0.9904499999999999  0.15188  1.0000
  H   H91       1.0  0.009609999999999896  0.82922  0.7658200000000001  1.0000
  H   H92       1.0  0.9863500000000001  0.89426  0.69779  1.0000
  H   H93       1.0  0.99831  0.87869  0.96803  1.0000
  H   H94       1.0  0.027830000000000004  0.92315  0.87379  1.0000
  H   H95       1.0  0.94712  0.94826  0.94585  1.0000
  H   H96       1.0  0.96061  0.97988  0.81304  1.0000
  H   H97       1.0  0.02143  0.08582  0.71504  1.0000
  H   H98       1.0  0.011050000000000004  0.00425  0.72601  1.0000
  H   H99       1.0  0.057010000000000005  0.030099999999999995  0.7594000000000001  1.0000
  H   H100      1.0  0.08948000000000003  0.1098  0.8556600000000001  1.0000
  H   H101      1.0  0.055180000000000014  0.16816  0.81286  1.0000
  H   H102      1.0  0.08395000000000001  0.17876  0.94232  1.0000
  H   H103      1.0  0.005850000000000001  0.06659  0.32592  1.0000
  H   H104      1.0  0.9647500000000001  0.10872999999999998  0.27405  1.0000
  H   H105      1.0  0.00778  0.14923  0.29611  1.0000
  H   H106      1.0  0.93126  0.9959000000000001  0.1187  1.0000
  H   H107      1.0  0.96045  4.000000000000005e-05  0.24816  1.0000
  H   H108      1.0  0.9691600000000002  0.9403799999999999  0.14184  1.0000
  C   C95       1.0  0.4962  0.18824  0.87501  1.0000
  C   C96       1.0  0.48884  0.13328  0.95882  1.0000
  C   C97       1.0  0.51419  0.07608  0.93486  1.0000
  C   C98       1.0  0.49557  0.014150000000000107  0.97041  1.0000
  C   C99       1.0  0.46873  0.9843200000000001  0.89324  1.0000
  C   C100      1.0  0.45639  0.014150000000000107  0.77707  1.0000
  C   C101      1.0  0.45269  0.92535  0.9239  1.0000
  C   C102      1.0  0.42279  0.8957300000000001  0.84252  1.0000
  C   C103      1.0  0.4643000000000001  0.89523  0.029440000000000004  1.0000
  C   C104      1.0  0.49026  0.92545  0.10815000000000001  1.0000
  C   C105      1.0  0.5037800000000002  0.8923499999999999  0.21938000000000002  1.0000
  C   C106      1.0  0.50491  0.98605  0.08059  1.0000
  C   C107      1.0  0.5307300000000001  0.02121  0.16783  1.0000
  H   H109      1.0  0.47754  0.22829  0.89679  1.0000
  H   H110      1.0  0.48926  0.17303  0.7828800000000001  1.0000
  H   H111      1.0  0.49297  0.14983  0.05174999999999996  1.0000
  H   H112      1.0  0.45892  0.11944  0.94794  1.0000
  H   H113      1.0  0.54134  0.08434  0.98128  1.0000
  H   H114      1.0  0.52249  0.07294  0.84101  1.0000
  H   H115      1.0  0.46381000000000006  0.98266  0.70212  1.0000
  H   H116      1.0  0.4685500000000001  0.06101000000000001  0.75911  1.0000
  H   H117      1.0  0.42576000000000014  0.021500000000000075  0.7760100000000001  1.0000
  H   H118      1.0  0.39924  0.92894  0.83071  1.0000
  H   H119      1.0  0.43487  0.8844999999999998  0.75515  1.0000
  H   H120      1.0  0.41004  0.85177  0.87575  1.0000
  H   H121      1.0  0.4926700000000001  0.91674  0.29849  1.0000
  H   H122      1.0  0.5348  0.8925499999999998  0.22383000000000003  1.0000
  H   H123      1.0  0.49539  0.8419699999999999  0.22383000000000003  1.0000
  H   H124      1.0  0.55973  0.021360000000000046  0.13477  1.0000
  H   H125      1.0  0.53151  0.0011200000000000099  0.25757  1.0000
  H   H126      1.0  0.5211600000000002  0.07058  0.18004000000000003  1.0000
  C   C108      1.0  0.07045  0.38698000000000005  0.5129  1.0000
  C   C109      1.0  0.03467000000000001  0.42622999999999994  0.50805  1.0000
  C   C110      1.0  0.03838000000000001  0.48488  0.4293  1.0000
  C   C111      1.0  0.01349  0.53813  0.4734000000000001  1.0000
  C   C112      1.0  0.027580000000000007  0.58155  0.5607500000000001  1.0000
  C   C113      1.0  0.06809  0.57686  0.60345  1.0000
  C   C114      1.0  0.0037700000000002736  0.62834  0.60807  1.0000
  C   C115      1.0  0.01984  0.6792  0.69108  1.0000
  C   C116      1.0  0.9653100000000001  0.62824  0.57564  1.0000
  C   C117      1.0  0.95124  0.58565  0.48727000000000004  1.0000
  C   C118      1.0  0.9099500000000001  0.58439  0.45313000000000003  1.0000
  C   C119      1.0  0.97572  0.54194  0.43302  1.0000
  C   C120      1.0  0.9619100000000002  0.49807000000000007  0.33334  1.0000
  H   H127      1.0  0.06834  0.35275  0.58621  1.0000
  H   H128      1.0  0.09501  0.41800000000000004  0.53335  1.0000
  H   H129      1.0  0.010870000000000001  0.39611  0.4763  1.0000
  H   H130      1.0  0.028440000000000003  0.4411  0.6001  1.0000
  H   H131      1.0  0.03181  0.47148  0.33632  1.0000
  H   H132      1.0  0.06787  0.50095  0.42554  1.0000
  H   H133      1.0  0.08716000000000002  0.58758  0.53004  1.0000
  H   H134      1.0  0.07370000000000002  0.52863  0.6365  1.0000
  H   H135      1.0  0.07604  0.60931  0.67709  1.0000
  H   H136      1.0  0.029470000000000007  0.65777  0.77524  1.0000
  H   H137      1.0  0.04354  0.70353  0.64818  1.0000
  H   H138      1.0  0.99992  0.71693  0.71376  1.0000
  H   H139      1.0  0.8983800000000001  0.53601  0.46524000000000004  1.0000
  H   H140      1.0  0.90633  0.59863  0.35949000000000003  1.0000
  H   H141      1.0  0.89236  0.61602  0.50635  1.0000
  H   H142      1.0  0.9785700000000002  0.5063  0.25309  1.0000
  H   H143      1.0  0.93247  0.50468  0.30539  1.0000
  H   H144      1.0  0.96451  0.44802000000000003  0.36030000000000006  1.0000
