data_image0
_chemical_formula_structural       EuOCO6COC2EuOCO6COC2EuOCO6COC2EuOCO6COC16H12C14H12C14H12C14H12C14H12C14H12C14H12C14H12
_chemical_formula_sum              "Eu4 O32 C128 H96"
_cell_length_a       35.5785
_cell_length_b       20.8034
_cell_length_c       11.9358
_cell_angle_alpha    85.6019
_cell_angle_beta     95.6571
_cell_angle_gamma    89.1108

_space_group_name_H-M_alt    "P 1"
_space_group_IT_number       1

loop_
  _space_group_symop_operation_xyz
  'x, y, z'

loop_
  _atom_site_type_symbol
  _atom_site_label
  _atom_site_symmetry_multiplicity
  _atom_site_fract_x
  _atom_site_fract_y
  _atom_site_fract_z
  _atom_site_occupancy
  Eu  Eu1       1.0  0.3858  0.73289  0.16869  1.0000
  O   O1        1.0  0.35844  0.8666  0.11035  1.0000
  C   C1        1.0  0.36288  0.61889  0.03731  1.0000
  O   O2        1.0  0.45099999999999996  0.7954999999999999  0.06596  1.0000
  O   O3        1.0  0.42831  0.80518  0.23293  1.0000
  O   O4        1.0  0.45424999999999993  0.65147  0.30917  1.0000
  O   O5        1.0  0.39533  0.63051  0.01853  1.0000
  O   O6        1.0  0.34418  0.66014  0.10065  1.0000
  O   O7        1.0  0.33919  0.79148  0.23566999999999994  1.0000
  C   C2        1.0  0.34  0.85494  0.18971999999999997  1.0000
  O   O8        1.0  0.39319  0.67026  0.33433  1.0000
  C   C3        1.0  0.42469  0.6297  0.33795  1.0000
  C   C4        1.0  0.44717  0.82954  0.14302  1.0000
  Eu  Eu2       1.0  0.88329  0.7336599999999999  0.81703  1.0000
  O   O9        1.0  0.8341199999999999  0.8538299999999999  0.81469  1.0000
  C   C5        1.0  0.80201  0.71246  0.8762799999999998  1.0000
  O   O10       1.0  0.9202099999999999  0.8369699999999999  0.95098  1.0000
  O   O11       1.0  0.94482  0.76233  0.8504599999999999  1.0000
  O   O12       1.0  0.9421899999999999  0.63149  0.80839  1.0000
  O   O13       1.0  0.81529  0.7456599999999999  0.9497099999999999  1.0000
  O   O14       1.0  0.82232  0.7018299999999998  0.7854299999999997  1.0000
  O   O15       1.0  0.87336  0.82219  0.69132  1.0000
  C   C6        1.0  0.8495399999999999  0.86745  0.72954  1.0000
  O   O16       1.0  0.8987200000000001  0.6753799999999999  0.67341  1.0000
  C   C7        1.0  0.9311799999999999  0.63848  0.70824  1.0000
  C   C8        1.0  0.94847  0.8124599999999998  0.9210699999999999  1.0000
  Eu  Eu3       1.0  0.11297999999999998  0.27321  0.26897  1.0000
  O   O17       1.0  0.16575  0.16559  0.23428  1.0000
  C   C9        1.0  0.15519  0.37476  0.13544  1.0000
  O   O18       1.0  0.06069  0.21522999999999998  0.10276999999999997  1.0000
  O   O19       1.0  0.07504  0.18671  0.2865  1.0000
  O   O20       1.0  0.02669  0.30244  0.39515999999999996  1.0000
  O   O21       1.0  0.13068  0.35751  0.0664  1.0000
  O   O22       1.0  0.15282  0.35713  0.2493  1.0000
  O   O23       1.0  0.15885  0.21931  0.38792999999999994  1.0000
  C   C10       1.0  0.17707  0.17372  0.3318  1.0000
  O   O24       1.0  0.08974999999999998  0.31652  0.4182399999999999  1.0000
  C   C11       1.0  0.052790000000000004  0.33954999999999996  0.39172  1.0000
  C   C12       1.0  0.06111  0.17251  0.17877  1.0000
  Eu  Eu4       1.0  0.62517  0.23301  0.88124  1.0000
  O   O25       1.0  0.65577  0.21144  0.64372  1.0000
  C   C13       1.0  0.69349  0.31789  0.8909899999999998  1.0000
  O   O26       1.0  0.5637  0.27149  0.007489999999999996  1.0000
  O   O27       1.0  0.5805  0.17313  0.96055  1.0000
  O   O28       1.0  0.59941  0.36159  0.7620699999999998  1.0000
  O   O29       1.0  0.70176  0.28145  0.97485  1.0000
  O   O30       1.0  0.66884  0.29678  0.8048899999999999  1.0000
  O   O31       1.0  0.64647  0.14621  0.79764  1.0000
  C   C14       1.0  0.6666  0.16449999999999998  0.7067  1.0000
  O   O32       1.0  0.58156  0.26014  0.73196  1.0000
  C   C15       1.0  0.57666  0.3266  0.71548  1.0000
  C   C16       1.0  0.55611  0.21462  0.006119999999999903  1.0000
  C   C17       1.0  0.34425  0.5613  0.99491  1.0000
  C   C18       1.0  0.3622699999999999  0.52199  0.92446  1.0000
  C   C19       1.0  0.34486  0.46679  0.88685  1.0000
  C   C20       1.0  0.30959  0.44973  0.91998  1.0000
  C   C21       1.0  0.29152  0.48766  0.99168  1.0000
  C   C22       1.0  0.25584  0.46568  0.03379  1.0000
  C   C23       1.0  0.22221  0.47340999999999994  0.9620899999999999  1.0000
  C   C24       1.0  0.18846000000000002  0.44633  0.9934599999999999  1.0000
  C   C25       1.0  0.1531  0.45722  0.9133799999999999  1.0000
  C   C26       1.0  0.18851  0.41019  0.0994  1.0000
  C   C27       1.0  0.22203  0.40521  0.17265999999999995  1.0000
  C   C28       1.0  0.25557  0.43239  0.14111  1.0000
  C   C29       1.0  0.29098  0.42404  0.22126  1.0000
  C   C30       1.0  0.30861  0.54387  0.027649999999999997  1.0000
  H   H1        1.0  0.38989  0.5337  0.89872  1.0000
  H   H2        1.0  0.35898  0.43666  0.8331199999999999  1.0000
  H   H3        1.0  0.29665  0.4062200000000001  0.89175  1.0000
  H   H4        1.0  0.22263  0.49991  0.8804000000000001  1.0000
  H   H5        1.0  0.14429  0.41113  0.8789199999999999  1.0000
  H   H6        1.0  0.13019  0.4771399999999999  0.95826  1.0000
  H   H7        1.0  0.15753  0.49207  0.84088  1.0000
  H   H8        1.0  0.22241  0.378  0.2539  1.0000
  H   H9        1.0  0.28603  0.3955000000000001  0.30079  1.0000
  H   H10       1.0  0.30103  0.47214  0.24322  1.0000
  H   H11       1.0  0.3132  0.39861  0.18125999999999995  1.0000
  H   H12       1.0  0.29445  0.57314  0.08268  1.0000
  C   C31       1.0  0.8431  0.9317  0.66832  1.0000
  C   C32       1.0  0.87003  0.958  0.60071  1.0000
  C   C33       1.0  0.86454  0.02021000000000006  0.5476099999999999  1.0000
  C   C34       1.0  0.83216  0.05668999999999998  0.56131  1.0000
  C   C35       1.0  0.80422  0.030160000000000003  0.62513  1.0000
  C   C36       1.0  0.76944  0.06735  0.64214  1.0000
  C   C37       1.0  0.7600699999999999  0.07014  0.7531999999999999  1.0000
  C   C38       1.0  0.72611  0.09877  0.77673  1.0000
  C   C39       1.0  0.71739  0.09706000000000001  0.89793  1.0000
  C   C40       1.0  0.70128  0.12823  0.68676  1.0000
  C   C41       1.0  0.71069  0.12591  0.57551  1.0000
  C   C42       1.0  0.74414  0.09520000000000002  0.55166  1.0000
  C   C43       1.0  0.75133  0.0917  0.4297699999999999  1.0000
  C   C44       1.0  0.81017  0.9678  0.6788699999999999  1.0000
  H   H13       1.0  0.89566  0.93105  0.5911  1.0000
  H   H14       1.0  0.88571  0.040470000000000006  0.4968099999999999  1.0000
  H   H15       1.0  0.82932  0.10572999999999999  0.52375  1.0000
  H   H16       1.0  0.7793999999999999  0.04874000000000001  0.8224099999999998  1.0000
  H   H17       1.0  0.71172  0.1466  0.92153  1.0000
  H   H18       1.0  0.69247  0.06664  0.90919  1.0000
  H   H19       1.0  0.74118  0.07582  0.95712  1.0000
  H   H20       1.0  0.69139  0.14746  0.50637  1.0000
  H   H21       1.0  0.72544  0.10437  0.37186  1.0000
  H   H22       1.0  0.76038  0.04218999999999996  0.4140199999999999  1.0000
  H   H23       1.0  0.77328  0.1264  0.40767  1.0000
  H   H24       1.0  0.78888  0.94722  0.72895  1.0000
  C   C45       1.0  0.21006  0.13624  0.3895199999999999  1.0000
  C   C46       1.0  0.22458000000000003  0.14959  0.49901  1.0000
  C   C47       1.0  0.25652  0.11611  0.5527  1.0000
  C   C48       1.0  0.27418  0.06872  0.4984  1.0000
  C   C49       1.0  0.25957  0.05362  0.39058  1.0000
  C   C50       1.0  0.27832  0.002709999999999999  0.3352  1.0000
  C   C51       1.0  0.30971  0.01923  0.27811  1.0000
  C   C52       1.0  0.33001  0.97279  0.22772  1.0000
  C   C53       1.0  0.36369  0.9943399999999999  0.16826  1.0000
  C   C54       1.0  0.31897  0.9073399999999999  0.23694999999999997  1.0000
  C   C55       1.0  0.28752  0.89109  0.29516  1.0000
  C   C56       1.0  0.26685  0.93798  0.34348999999999996  1.0000
  C   C57       1.0  0.23319999999999996  0.91676  0.40332  1.0000
  C   C58       1.0  0.22768000000000002  0.08759  0.33588  1.0000
  H   H25       1.0  0.21149  0.18623000000000003  0.54301  1.0000
  H   H26       1.0  0.26768  0.12701  0.6366  1.0000
  H   H27       1.0  0.29915  0.04354  0.54042  1.0000
  H   H28       1.0  0.31854  0.06893  0.27395  1.0000
  H   H29       1.0  0.36943  0.046210000000000084  0.17649  1.0000
  H   H30       1.0  0.38926  0.96627  0.20537  1.0000
  H   H31       1.0  0.35843  0.98756  0.07674  1.0000
  H   H32       1.0  0.27875  0.84141  0.30276  1.0000
  H   H33       1.0  0.24221  0.8787499999999999  0.47154  1.0000
  H   H34       1.0  0.21183  0.8966399999999999  0.34215999999999996  1.0000
  H   H35       1.0  0.21943999999999997  0.95658  0.44201  1.0000
  H   H36       1.0  0.21681  0.07608  0.2519  1.0000
  C   C59       1.0  0.76495  0.68333  0.8848299999999999  1.0000
  C   C60       1.0  0.7345799999999999  0.71978  0.91548  1.0000
  C   C61       1.0  0.69964  0.69144  0.92619  1.0000
  C   C62       1.0  0.69495  0.62632  0.90865  1.0000
  C   C63       1.0  0.7251699999999999  0.58916  0.8790899999999998  1.0000
  C   C64       1.0  0.72097  0.51896  0.87241  1.0000
  C   C65       1.0  0.73922  0.47726  0.9592399999999999  1.0000
  C   C66       1.0  0.73236  0.41084  0.96621  1.0000
  C   C67       1.0  0.75237  0.36924999999999997  0.06379000000000001  1.0000
  C   C68       1.0  0.70653  0.38555999999999996  0.88319  1.0000
  C   C69       1.0  0.6904  0.42730999999999997  0.79206  1.0000
  C   C70       1.0  0.69735  0.49356  0.78573  1.0000
  C   C71       1.0  0.68018  0.53601  0.6851899999999999  1.0000
  C   C72       1.0  0.76004  0.61794  0.8662  1.0000
  H   H37       1.0  0.73782  0.77029  0.9299799999999999  1.0000
  H   H38       1.0  0.67627  0.71974  0.94956  1.0000
  H   H39       1.0  0.66803  0.60449  0.92049  1.0000
  H   H40       1.0  0.75797  0.4972599999999999  0.024189999999999934  1.0000
  H   H41       1.0  0.73159  0.3494  0.11994  1.0000
  H   H42       1.0  0.76831  0.32938  0.03177000000000007  1.0000
  H   H43       1.0  0.77288  0.39701  0.11597999999999999  1.0000
  H   H44       1.0  0.67141  0.4086099999999999  0.72638  1.0000
  H   H45       1.0  0.66389  0.50767  0.62255  1.0000
  H   H46       1.0  0.70309  0.56042  0.64282  1.0000
  H   H47       1.0  0.66079  0.57287  0.71199  1.0000
  H   H48       1.0  0.78358  0.58899  0.8452399999999998  1.0000
  C   C73       1.0  0.42181  0.56033  0.37085999999999997  1.0000
  C   C74       1.0  0.38691  0.53037  0.35172  1.0000
  C   C75       1.0  0.38407  0.4641799999999999  0.37712  1.0000
  C   C76       1.0  0.41576  0.4272099999999999  0.42222  1.0000
  C   C77       1.0  0.4508  0.45626999999999995  0.44473  1.0000
  C   C78       1.0  0.48328000000000004  0.4177700000000001  0.50523  1.0000
  C   C79       1.0  0.4769  0.37783  0.60189  1.0000
  C   C80       1.0  0.50683  0.34575  0.67008  1.0000
  C   C81       1.0  0.49885  0.30514  0.77475  1.0000
  C   C82       1.0  0.54411  0.35511  0.64265  1.0000
  C   C83       1.0  0.55059  0.39322  0.5452099999999999  1.0000
  C   C84       1.0  0.5206  0.42269  0.47374999999999995  1.0000
  C   C85       1.0  0.52982  0.45602999999999994  0.36377999999999994  1.0000
  C   C86       1.0  0.4535699999999999  0.52315  0.41853  1.0000
  H   H49       1.0  0.36201  0.55798  0.31531  1.0000
  H   H50       1.0  0.3572  0.44126999999999994  0.3627  1.0000
  H   H51       1.0  0.41276  0.37593  0.4412599999999999  1.0000
  H   H52       1.0  0.44848000000000005  0.37336  0.62657  1.0000
  H   H53       1.0  0.5104  0.25541  0.77272  1.0000
  H   H54       1.0  0.51213  0.32698000000000005  0.8503899999999999  1.0000
  H   H55       1.0  0.46809  0.30169  0.78249  1.0000
  H   H56       1.0  0.57931  0.39887  0.52344  1.0000
  H   H57       1.0  0.54892  0.42431  0.32292  1.0000
  H   H58       1.0  0.54448  0.50159  0.38016  1.0000
  H   H59       1.0  0.5044  0.4662299999999999  0.30321  1.0000
  H   H60       1.0  0.48016999999999993  0.54659  0.43776  1.0000
  C   C87       1.0  0.98641  0.83582  0.9583699999999999  1.0000
  C   C88       1.0  0.018979999999999997  0.8001199999999999  0.9416399999999999  1.0000
  C   C89       1.0  0.05484  0.82275  0.97473  1.0000
  C   C90       1.0  0.058620000000000005  0.88167  0.022809999999999997  1.0000
  C   C91       1.0  0.026469999999999997  0.91841  0.03865000000000007  1.0000
  C   C92       1.0  0.03098  0.9834299999999999  0.07985  1.0000
  C   C93       1.0  0.05046  0.9894799999999999  0.18632  1.0000
  C   C94       1.0  0.059379999999999995  0.05027000000000001  0.22431  1.0000
  C   C95       1.0  0.08154  0.05260999999999999  0.33828  1.0000
  C   C96       1.0  0.0486  0.10672999999999999  0.15295  1.0000
  C   C97       1.0  0.027849999999999996  0.10009  0.047940000000000094  1.0000
  C   C98       1.0  0.019200000000000002  0.03941999999999999  0.010189999999999921  1.0000
  C   C99       1.0  0.99968  0.03547  0.8928999999999999  1.0000
  C   C100      1.0  0.9904199999999999  0.8945799999999999  0.008930000000000105  1.0000
  H   H61       1.0  0.016799999999999933  0.75462  0.90331  1.0000
  H   H62       1.0  0.07980999999999999  0.79504  0.9615299999999999  1.0000
  H   H63       1.0  0.08661999999999999  0.89948  0.045139999999999986  1.0000
  H   H64       1.0  0.05959000000000001  0.9461  0.23882  1.0000
  H   H65       1.0  0.10872  0.07696  0.3291  1.0000
  H   H66       1.0  0.06474999999999999  0.07846999999999997  0.39508999999999994  1.0000
  H   H67       1.0  0.08836  0.0035700000000000033  0.37960999999999995  1.0000
  H   H68       1.0  0.019259999999999996  0.14274  0.9928999999999999  1.0000
  H   H69       1.0  0.99586  0.08369999999999997  0.846  1.0000
  H   H70       1.0  0.9712899999999999  0.014790000000000005  0.89748  1.0000
  H   H71       1.0  0.0168  0.00479000000000007  0.84404  1.0000
  H   H72       1.0  0.96562  0.92259  0.022769999999999953  1.0000
  C   C101      1.0  0.5214  0.19032999999999997  0.05133999999999994  1.0000
  C   C102      1.0  0.49491  0.23288  0.0882400000000001  1.0000
  C   C103      1.0  0.46236  0.20913999999999996  0.13183  1.0000
  C   C104      1.0  0.45585000000000003  0.14297  0.13876  1.0000
  C   C105      1.0  0.48176  0.10013999999999999  0.10076  1.0000
  C   C106      1.0  0.47522  0.03011  0.10956999999999997  1.0000
  C   C107      1.0  0.47631999999999997  0.99783  0.21727  1.0000
  C   C108      1.0  0.4683899999999999  0.93201  0.23133999999999993  1.0000
  C   C109      1.0  0.46985  0.90014  0.34930999999999995  1.0000
  C   C110      1.0  0.45926  0.8975199999999999  0.13488  1.0000
  C   C111      1.0  0.45969  0.9296800000000001  0.02689000000000008  1.0000
  C   C112      1.0  0.46748000000000006  0.99554  0.013009999999999966  1.0000
  C   C113      1.0  0.4663999999999999  0.028259999999999945  0.89543  1.0000
  C   C114      1.0  0.5145  0.12397999999999999  0.0577700000000001  1.0000
  H   H73       1.0  0.49935999999999997  0.2844  0.0835300000000001  1.0000
  H   H74       1.0  0.44216  0.2421  0.16042  1.0000
  H   H75       1.0  0.43057  0.12513  0.17312  1.0000
  H   H76       1.0  0.48322000000000004  0.024540000000000003  0.2908  1.0000
  H   H77       1.0  0.44085  0.88827  0.36935999999999997  1.0000
  H   H78       1.0  0.48783  0.8556  0.3566999999999999  1.0000
  H   H79       1.0  0.48191  0.9322  0.41322  1.0000
  H   H80       1.0  0.45275999999999994  0.90362  0.95265  1.0000
  H   H81       1.0  0.45738  0.9949699999999999  0.82992  1.0000
  H   H82       1.0  0.49495000000000006  0.04517999999999999  0.87951  1.0000
  H   H83       1.0  0.44623  0.07006999999999997  0.88559  1.0000
  H   H84       1.0  0.53473  0.0905  0.03066999999999997  1.0000
  C   C115      1.0  0.04539  0.40890999999999994  0.36382999999999993  1.0000
  C   C116      1.0  0.06624  0.4427  0.28571  1.0000
  C   C117      1.0  0.06070000000000001  0.50917  0.26218  1.0000
  C   C118      1.0  0.03491  0.54263  0.3183  1.0000
  C   C119      1.0  0.014109999999999996  0.50951  0.39726  1.0000
  C   C120      1.0  0.99149  0.54608  0.46875  1.0000
  C   C121      1.0  0.011179999999999999  0.58059  0.55116  1.0000
  C   C122      1.0  0.99217  0.61216  0.62915  1.0000
  C   C123      1.0  0.014700000000000001  0.64996  0.71431  1.0000
  C   C124      1.0  0.9523999999999999  0.60873  0.6247  1.0000
  C   C125      1.0  0.9324999999999999  0.57681  0.53863  1.0000
  C   C126      1.0  0.9516099999999998  0.54534  0.46015  1.0000
  C   C127      1.0  0.9285100000000001  0.51248  0.36923999999999996  1.0000
  C   C128      1.0  0.01898  0.44242  0.41881  1.0000
  H   H85       1.0  0.08659  0.41752  0.24245  1.0000
  H   H86       1.0  0.077  0.53501  0.20218  1.0000
  H   H87       1.0  0.03175  0.5945  0.30241  1.0000
  H   H88       1.0  0.04175  0.58175  0.55577  1.0000
  H   H89       1.0  0.003089999999999996  0.70004  0.7103099999999999  1.0000
  H   H90       1.0  0.013630000000000031  0.62655  0.80058  1.0000
  H   H91       1.0  0.04485  0.65281  0.69804  1.0000
  H   H92       1.0  0.90195  0.57514  0.53402  1.0000
  H   H93       1.0  0.90877  0.54817  0.31918  1.0000
  H   H94       1.0  0.91176  0.47384999999999994  0.40846  1.0000
  H   H95       1.0  0.9460699999999999  0.49065000000000003  0.30974  1.0000
  H   H96       1.0  0.0038800000000000032  0.4171  0.48274  1.0000
