data_image0
_chemical_formula_structural       EuOCO6COC2EuOCO6COC2EuOCO6COC2EuOCO6COC17OC4H24C15OC4H24C15OC4H24C15OC4H24C15OC4H24C15OC4H24C15OC4H24C15OC4H24
_chemical_formula_sum              "Eu4 O40 C168 H192"
_cell_length_a       38.9881
_cell_length_b       20.724
_cell_length_c       10.0913
_cell_angle_alpha    89.4509
_cell_angle_beta     84.01800000000001
_cell_angle_gamma    91.4799

_space_group_name_H-M_alt    "P 1"
_space_group_IT_number       1

loop_
  _space_group_symop_operation_xyz
  'x, y, z'

loop_
  _atom_site_type_symbol
  _atom_site_label
  _atom_site_symmetry_multiplicity
  _atom_site_fract_x
  _atom_site_fract_y
  _atom_site_fract_z
  _atom_site_occupancy
  Eu  Eu1       1.0  0.3986  0.7327199999999999  0.18524  1.0000
  O   O1        1.0  0.34974  0.84052  0.11945  1.0000
  C   C1        1.0  0.32112  0.71835  0.24779  1.0000
  O   O2        1.0  0.46762999999999993  0.80472  0.19208  1.0000
  O   O3        1.0  0.4485  0.73532  0.04372  1.0000
  O   O4        1.0  0.40439  0.62781  0.39906  1.0000
  O   O5        1.0  0.32682  0.70064  0.13283  1.0000
  O   O6        1.0  0.34858  0.72802  0.32351  1.0000
  O   O7        1.0  0.40125  0.84307  0.2022  1.0000
  C   C2        1.0  0.3713  0.8721699999999999  0.17069  1.0000
  O   O8        1.0  0.42886  0.72767  0.36568  1.0000
  C   C3        1.0  0.42562  0.66782  0.42955  1.0000
  C   C4        1.0  0.4719999999999999  0.7814199999999999  0.08157  1.0000
  Eu  Eu2       1.0  0.8743699999999999  0.73851  0.6387  1.0000
  O   O9        1.0  0.8584299999999999  0.8764299999999999  0.67314  1.0000
  C   C5        1.0  0.79876  0.73097  0.76964  1.0000
  O   O10       1.0  0.97331  0.78311  0.76506  1.0000
  O   O11       1.0  0.9322599999999999  0.76134  0.62898  1.0000
  O   O12       1.0  0.9194599999999999  0.60252  0.35413  1.0000
  O   O13       1.0  0.77402  0.7661  0.77481  1.0000
  O   O14       1.0  0.8164999999999999  0.71814  0.64597  1.0000
  O   O15       1.0  0.86907  0.8180699999999999  0.48702999999999996  1.0000
  C   C6        1.0  0.8626599999999999  0.87595  0.55179  1.0000
  O   O16       1.0  0.88254  0.6699199999999998  0.46251999999999993  1.0000
  C   C7        1.0  0.90989  0.62761  0.45931000000000005  1.0000
  C   C8        1.0  0.94262  0.782  0.75023  1.0000
  Eu  Eu3       1.0  0.11038  0.23045  0.19077  1.0000
  O   O17       1.0  0.19085999999999997  0.19923  0.44275  1.0000
  C   C9        1.0  0.15182  0.35826  0.08888  1.0000
  O   O18       1.0  0.08554  0.09607  0.09387999999999999  1.0000
  O   O19       1.0  0.09419  0.13513  0.29524  1.0000
  O   O20       1.0  0.10324  0.32796  0.44850999999999996  1.0000
  O   O21       1.0  0.17571  0.32806  0.12452000000000002  1.0000
  O   O22       1.0  0.11985999999999998  0.32786  0.08324  1.0000
  O   O23       1.0  0.15083999999999997  0.24938  0.33639  1.0000
  C   C10       1.0  0.17297  0.19821  0.35064  1.0000
  O   O24       1.0  0.06646  0.27369  0.32633  1.0000
  C   C11       1.0  0.07571999999999997  0.29824  0.44589  1.0000
  C   C12       1.0  0.07508  0.09952  0.21155999999999997  1.0000
  Eu  Eu4       1.0  0.63464  0.22574  0.8860399999999999  1.0000
  O   O25       1.0  0.6634  0.09096  0.85931  1.0000
  C   C13       1.0  0.70925  0.28141  0.76795  1.0000
  O   O26       1.0  0.52296  0.23255  0.022639999999999993  1.0000
  O   O27       1.0  0.58065  0.22464999999999996  0.006000000000000005  1.0000
  O   O28       1.0  0.58734  0.34652999999999995  0.88386  1.0000
  O   O29       1.0  0.73701  0.28107  0.7002  1.0000
  O   O30       1.0  0.68991  0.22369999999999998  0.78297  1.0000
  O   O31       1.0  0.62334  0.14155999999999996  0.75461  1.0000
  C   C14       1.0  0.6479  0.09465999999999997  0.76094  1.0000
  O   O32       1.0  0.62119  0.29595  0.72454  1.0000
  C   C15       1.0  0.60471  0.35019  0.77651  1.0000
  C   C16       1.0  0.54906  0.21982  0.9511999999999999  1.0000
  C   C17       1.0  0.28544  0.73668  0.3025  1.0000
  C   C18       1.0  0.25801  0.68076  0.31675  1.0000
  C   C19       1.0  0.2671299999999999  0.62796  0.41649  1.0000
  C   C20       1.0  0.23809999999999995  0.5752  0.43291999999999997  1.0000
  C   C21       1.0  0.20379999999999998  0.60583  0.48629  1.0000
  C   C22       1.0  0.19436  0.65775  0.38659  1.0000
  C   C23       1.0  0.22308  0.71026  0.3699  1.0000
  C   C24       1.0  0.19039  0.627  0.25008  1.0000
  C   C25       1.0  0.22468999999999997  0.59552  0.1947  1.0000
  C   C26       1.0  0.22277  0.5657399999999999  0.05412999999999999  1.0000
  C   C27       1.0  0.18987  0.52831  0.03706  1.0000
  C   C28       1.0  0.18654999999999997  0.46241999999999994  0.07002  1.0000
  C   C29       1.0  0.15616999999999998  0.42746  0.05143999999999999  1.0000
  C   C30       1.0  0.12919  0.45918  0.9973899999999999  1.0000
  C   C31       1.0  0.13222  0.52463  0.9618799999999998  1.0000
  O   O33       1.0  0.10387999999999999  0.55228  0.90801  1.0000
  C   C32       1.0  0.10686999999999999  0.6182899999999999  0.86558  1.0000
  C   C33       1.0  0.16285  0.55902  0.9818200000000001  1.0000
  C   C34       1.0  0.23396999999999998  0.54371  0.29689  1.0000
  C   C35       1.0  0.25376  0.6486  0.18091  1.0000
  H   H1        1.0  0.27703999999999995  0.7747299999999999  0.23554  1.0000
  H   H2        1.0  0.28687  0.75933  0.40126  1.0000
  H   H3        1.0  0.29198  0.60567  0.38036  1.0000
  H   H4        1.0  0.27041  0.64971  0.51491  1.0000
  H   H5        1.0  0.24477  0.53767  0.5048  1.0000
  H   H6        1.0  0.2063199999999999  0.62787  0.58503  1.0000
  H   H7        1.0  0.18286  0.56819  0.5012  1.0000
  H   H8        1.0  0.16973  0.68002  0.4254299999999999  1.0000
  H   H9        1.0  0.22528  0.73356  0.46764999999999995  1.0000
  H   H10       1.0  0.21598  0.74832  0.29983  1.0000
  H   H11       1.0  0.18314  0.66443  0.17901  1.0000
  H   H12       1.0  0.16898999999999997  0.59025  0.26315  1.0000
  H   H13       1.0  0.22582  0.60489  0.97714  1.0000
  H   H14       1.0  0.24515  0.53416  0.02938  1.0000
  H   H15       1.0  0.20769999999999997  0.4387  0.11035  1.0000
  H   H16       1.0  0.10552  0.43313  0.9820900000000001  1.0000
  H   H17       1.0  0.11078  0.65018  0.95095  1.0000
  H   H18       1.0  0.08252  0.63192  0.8260200000000001  1.0000
  H   H19       1.0  0.12827  0.62519  0.78447  1.0000
  H   H20       1.0  0.16613999999999998  0.60967  0.95572  1.0000
  H   H21       1.0  0.21336  0.50541  0.31074  1.0000
  H   H22       1.0  0.25834  0.51993  0.25997  1.0000
  H   H23       1.0  0.24799999999999994  0.6862499999999999  0.10750999999999998  1.0000
  H   H24       1.0  0.27804999999999996  0.62555  0.14109  1.0000
  C   C36       1.0  0.863  0.93717  0.47074999999999995  1.0000
  C   C37       1.0  0.8317899999999999  0.9813199999999999  0.50193  1.0000
  C   C38       1.0  0.83243  0.013530000000000042  0.64007  1.0000
  C   C39       1.0  0.8020599999999999  0.05950999999999999  0.66433  1.0000
  C   C40       1.0  0.8050199999999998  0.11248  0.55509  1.0000
  C   C41       1.0  0.80386  0.08117  0.41768  1.0000
  C   C42       1.0  0.8341399999999998  0.03526999999999991  0.39272  1.0000
  C   C43       1.0  0.76956  0.04261  0.41361  1.0000
  C   C44       1.0  0.76591  0.9889499999999999  0.52344  1.0000
  C   C45       1.0  0.73192  0.94785  0.51896  1.0000
  C   C46       1.0  0.69961  0.98699  0.52167  1.0000
  C   C47       1.0  0.6848299999999999  0.01213  0.64212  1.0000
  C   C48       1.0  0.6574999999999999  0.05474  0.64356  1.0000
  C   C49       1.0  0.6419799999999999  0.06529  0.52653  1.0000
  C   C50       1.0  0.65524  0.03865  0.40587  1.0000
  O   O34       1.0  0.63845  0.053709999999999994  0.29282  1.0000
  C   C51       1.0  0.6549099999999999  0.03855  0.16448  1.0000
  C   C52       1.0  0.6847  0.0001499999999999999  0.4034  1.0000
  C   C53       1.0  0.76765  0.021280000000000004  0.66144  1.0000
  C   C54       1.0  0.79699  0.9433  0.49879  1.0000
  H   H25       1.0  0.86352  0.9226799999999998  0.36514  1.0000
  H   H26       1.0  0.88741  0.96454  0.48178  1.0000
  H   H27       1.0  0.8301399999999997  0.9769299999999999  0.7217  1.0000
  H   H28       1.0  0.8572  0.04082999999999992  0.64504  1.0000
  H   H29       1.0  0.80275  0.08227  0.76337  1.0000
  H   H30       1.0  0.8296  0.14072  0.55735  1.0000
  H   H31       1.0  0.7835999999999999  0.14669  0.57363  1.0000
  H   H32       1.0  0.8060999999999998  0.11947  0.33901  1.0000
  H   H33       1.0  0.859  0.06306999999999996  0.39107  1.0000
  H   H34       1.0  0.83335  0.013840000000000073  0.29263  1.0000
  H   H35       1.0  0.7687199999999998  0.020749999999999998  0.31367  1.0000
  H   H36       1.0  0.7478799999999999  0.07650999999999997  0.42835  1.0000
  H   H37       1.0  0.73416  0.9183799999999999  0.42707  1.0000
  H   H38       1.0  0.7289199999999999  0.9126699999999999  0.60366  1.0000
  H   H39       1.0  0.69573  0.0008599999999999998  0.73379  1.0000
  H   H40       1.0  0.62025  0.09683999999999998  0.52746  1.0000
  H   H41       1.0  0.68041  0.06411  0.14616  1.0000
  H   H42       1.0  0.63839  0.05518  0.0887  1.0000
  H   H43       1.0  0.65762  0.98564  0.15347  1.0000
  H   H44       1.0  0.69646  0.98094  0.3108  1.0000
  H   H45       1.0  0.74659  0.05592  0.68163  1.0000
  H   H46       1.0  0.7649  0.98411  0.74245  1.0000
  H   H47       1.0  0.7965499999999999  0.91954  0.40048  1.0000
  H   H48       1.0  0.79457  0.90437  0.57626  1.0000
  C   C55       1.0  0.17329999999999998  0.14083999999999997  0.25901  1.0000
  C   C56       1.0  0.20917  0.12228999999999998  0.18831  1.0000
  C   C57       1.0  0.203  0.06813  0.08686  1.0000
  C   C58       1.0  0.23743  0.04738  0.012909999999999998  1.0000
  C   C59       1.0  0.25541  0.10599999999999998  0.9372000000000001  1.0000
  C   C60       1.0  0.26239  0.15931999999999996  0.03732  1.0000
  C   C61       1.0  0.22789  0.18062  0.11152  1.0000
  C   C62       1.0  0.28592  0.13305  0.13833  1.0000
  C   C63       1.0  0.26813  0.07393  0.21568  1.0000
  C   C64       1.0  0.29058  0.0477  0.32179  1.0000
  C   C65       1.0  0.32621  0.02681  0.26806  1.0000
  C   C66       1.0  0.332  0.9619299999999998  0.23692000000000002  1.0000
  C   C67       1.0  0.36561999999999995  0.9408  0.20131  1.0000
  C   C68       1.0  0.39348  0.9851699999999999  0.19755  1.0000
  C   C69       1.0  0.38832999999999995  0.05018999999999996  0.2284  1.0000
  O   O35       1.0  0.41784999999999994  0.09089  0.22902  1.0000
  C   C70       1.0  0.41357999999999995  0.15453  0.28019  1.0000
  C   C71       1.0  0.3543  0.07079  0.2625  1.0000
  C   C72       1.0  0.26072  0.020939999999999955  0.11425000000000002  1.0000
  C   C73       1.0  0.23314  0.09551000000000001  0.2887  1.0000
  H   H49       1.0  0.16178999999999996  0.09844  0.31763  1.0000
  H   H50       1.0  0.15606  0.15121  0.18114  1.0000
  H   H51       1.0  0.18976  0.02543  0.13919  1.0000
  H   H52       1.0  0.18594999999999998  0.08526  0.01272  1.0000
  H   H53       1.0  0.23238999999999999  0.008979999999999988  0.94079  1.0000
  H   H54       1.0  0.23887  0.12451999999999999  0.86266  1.0000
  H   H55       1.0  0.28007  0.09135  0.88149  1.0000
  H   H56       1.0  0.27553  0.20131000000000002  0.9824199999999998  1.0000
  H   H57       1.0  0.21136  0.20081  0.03871  1.0000
  H   H58       1.0  0.23320999999999997  0.21976  0.18174  1.0000
  H   H59       1.0  0.29188  0.17158  0.20892  1.0000
  H   H60       1.0  0.31074  0.11911  0.08305  1.0000
  H   H61       1.0  0.29329  0.08512  0.39849  1.0000
  H   H62       1.0  0.27672  0.006230000000000001  0.3762  1.0000
  H   H63       1.0  0.31046  0.9275199999999999  0.24381999999999998  1.0000
  H   H64       1.0  0.41959  0.9693599999999999  0.17157  1.0000
  H   H65       1.0  0.3986  0.18378  0.21473  1.0000
  H   H66       1.0  0.43943999999999994  0.1778  0.28253  1.0000
  H   H67       1.0  0.40074999999999994  0.15294  0.38399  1.0000
  H   H68       1.0  0.34938  0.12035  0.28891  1.0000
  H   H69       1.0  0.28517  0.00486999999999993  0.05961999999999999  1.0000
  H   H70       1.0  0.24796999999999997  0.97802  0.16722  1.0000
  H   H71       1.0  0.23863  0.13302  0.36196  1.0000
  H   H72       1.0  0.2199  0.05412999999999999  0.34577  1.0000
  C   C74       1.0  0.8079899999999999  0.69913  0.89565  1.0000
  C   C75       1.0  0.7971299999999999  0.6259  0.91031  1.0000
  C   C76       1.0  0.8262099999999999  0.58363  0.84458  1.0000
  C   C77       1.0  0.8165300000000001  0.51137  0.86395  1.0000
  C   C78       1.0  0.81067  0.4947099999999999  0.014040000000000054  1.0000
  C   C79       1.0  0.78131  0.53555  0.08025  1.0000
  C   C80       1.0  0.79117  0.60775  0.0612999999999999  1.0000
  C   C81       1.0  0.74787  0.52059  0.015879999999999894  1.0000
  C   C82       1.0  0.75313  0.53643  0.8636300000000001  1.0000
  C   C83       1.0  0.71975  0.52279  0.79409  1.0000
  C   C84       1.0  0.7014  0.45978  0.83774  1.0000
  C   C85       1.0  0.71154  0.40153  0.77853  1.0000
  C   C86       1.0  0.69742  0.34226  0.83043  1.0000
  C   C87       1.0  0.6733399999999999  0.34223999999999993  0.9438199999999999  1.0000
  C   C88       1.0  0.66083  0.40003  0.99702  1.0000
  O   O36       1.0  0.63519  0.39571  0.10555000000000002  1.0000
  C   C89       1.0  0.61152  0.4470299999999999  0.12091  1.0000
  C   C90       1.0  0.6751  0.4590099999999999  0.94358  1.0000
  C   C91       1.0  0.78334  0.4960899999999999  0.7985299999999999  1.0000
  C   C92       1.0  0.76339  0.6092999999999998  0.8456999999999999  1.0000
  H   H73       1.0  0.7950999999999999  0.72595  0.98117  1.0000
  H   H74       1.0  0.83613  0.70617  0.90189  1.0000
  H   H75       1.0  0.8312399999999999  0.59519  0.73644  1.0000
  H   H76       1.0  0.85014  0.59348  0.89159  1.0000
  H   H77       1.0  0.83789  0.48218999999999995  0.81658  1.0000
  H   H78       1.0  0.83476  0.50427  0.061569999999999896  1.0000
  H   H79       1.0  0.80398  0.44248  0.02887  1.0000
  H   H80       1.0  0.77712  0.52353  0.18855  1.0000
  H   H81       1.0  0.81491  0.61855  0.11055  1.0000
  H   H82       1.0  0.77017  0.63671  0.11223999999999999  1.0000
  H   H83       1.0  0.72646  0.54902  0.0653  1.0000
  H   H84       1.0  0.74095  0.46863999999999995  0.03395  1.0000
  H   H85       1.0  0.70156  0.5627399999999999  0.8158699999999999  1.0000
  H   H86       1.0  0.72598  0.52343  0.68374  1.0000
  H   H87       1.0  0.73078  0.40248999999999996  0.69292  1.0000
  H   H88       1.0  0.66381  0.29774  0.99244  1.0000
  H   H89       1.0  0.62443  0.4923  0.14973  1.0000
  H   H90       1.0  0.59134  0.4334  0.20246  1.0000
  H   H91       1.0  0.59894  0.45428999999999997  0.02815  1.0000
  H   H92       1.0  0.66726  0.50447  0.98671  1.0000
  H   H93       1.0  0.77712  0.44367  0.81074  1.0000
  H   H94       1.0  0.7879699999999998  0.50683  0.68979  1.0000
  H   H95       1.0  0.74219  0.63944  0.89125  1.0000
  H   H96       1.0  0.7669199999999999  0.62102  0.73724  1.0000
  C   C93       1.0  0.44887  0.65354  0.5353  1.0000
  C   C94       1.0  0.47817  0.60629  0.49066999999999994  1.0000
  C   C95       1.0  0.46365999999999996  0.53596  0.48347999999999997  1.0000
  C   C96       1.0  0.49333999999999995  0.48955  0.44485  1.0000
  C   C97       1.0  0.51195  0.50971  0.30756  1.0000
  C   C98       1.0  0.52692  0.5791  0.31441  1.0000
  C   C99       1.0  0.49743  0.62595  0.35252  1.0000
  C   C100      1.0  0.55296  0.58179  0.41956000000000004  1.0000
  C   C101      1.0  0.53472  0.56159  0.55902  1.0000
  C   C102      1.0  0.5599  0.56679  0.66885  1.0000
  C   C103      1.0  0.58837  0.51867  0.65514  1.0000
  C   C104      1.0  0.58397  0.45926  0.72317  1.0000
  C   C105      1.0  0.6090599999999999  0.41221  0.70332  1.0000
  C   C106      1.0  0.63901  0.42547999999999997  0.61655  1.0000
  C   C107      1.0  0.64492  0.48603  0.55429  1.0000
  O   O37       1.0  0.67654  0.49639999999999995  0.47442  1.0000
  C   C108      1.0  0.68391  0.5587999999999999  0.41545  1.0000
  C   C109      1.0  0.6192  0.53275  0.57403  1.0000
  C   C110      1.0  0.51921  0.49195999999999995  0.55069  1.0000
  C   C111      1.0  0.50465  0.60809  0.59553  1.0000
  H   H97       1.0  0.43292  0.63466  0.6257  1.0000
  H   H98       1.0  0.46062  0.70025  0.56402  1.0000
  H   H99       1.0  0.44987999999999995  0.52064  0.5814  1.0000
  H   H100      1.0  0.44482999999999995  0.53256  0.4081699999999999  1.0000
  H   H101      1.0  0.48266  0.43946999999999997  0.43941  1.0000
  H   H102      1.0  0.49352999999999997  0.50712  0.2306  1.0000
  H   H103      1.0  0.533  0.47591  0.27745  1.0000
  H   H104      1.0  0.5403  0.59329  0.21527999999999997  1.0000
  H   H105      1.0  0.47939  0.62446  0.274  1.0000
  H   H106      1.0  0.50818  0.67617  0.35504  1.0000
  H   H107      1.0  0.56429  0.63153  0.42203999999999997  1.0000
  H   H108      1.0  0.57437  0.54897  0.38852  1.0000
  H   H109      1.0  0.57154  0.61633  0.66813  1.0000
  H   H110      1.0  0.54505  0.56003  0.76858  1.0000
  H   H111      1.0  0.56054  0.44911  0.78889  1.0000
  H   H112      1.0  0.6586199999999999  0.38944  0.60082  1.0000
  H   H113      1.0  0.66494  0.57031  0.34428  1.0000
  H   H114      1.0  0.70989  0.55873  0.35907  1.0000
  H   H115      1.0  0.68421  0.59617  0.49365  1.0000
  H   H116      1.0  0.62251  0.57985  0.52638  1.0000
  H   H117      1.0  0.53986  0.45708  0.52294  1.0000
  H   H118      1.0  0.50607  0.47607  0.64922  1.0000
  H   H119      1.0  0.51535  0.65812  0.60233  1.0000
  H   H120      1.0  0.49129999999999996  0.59474  0.69545  1.0000
  C   C112      1.0  0.91639  0.8007299999999999  0.86283  1.0000
  C   C113      1.0  0.92278  0.86837  0.9245899999999999  1.0000
  C   C114      1.0  0.93374  0.92145  0.8167300000000001  1.0000
  C   C115      1.0  0.9386599999999999  0.98734  0.88347  1.0000
  C   C116      1.0  0.90436  0.00606  0.96172  1.0000
  C   C117      1.0  0.89366  0.9545599999999999  0.07034999999999991  1.0000
  C   C118      1.0  0.8887199999999998  0.88856  0.005640000000000089  1.0000
  C   C119      1.0  0.92183  0.9504999999999999  0.16622  1.0000
  C   C120      1.0  0.95658  0.9315699999999999  0.08953  1.0000
  C   C121      1.0  0.9849999999999999  0.92428  0.18604  1.0000
  C   C122      1.0  0.99682  0.98636  0.24713  1.0000
  C   C123      1.0  0.028710000000000003  0.01526  0.19954999999999998  1.0000
  C   C124      1.0  0.04155  0.06938  0.26244  1.0000
  C   C125      1.0  0.02147  0.09661  0.37015  1.0000
  C   C126      1.0  0.9890299999999999  0.06993  0.41663999999999995  1.0000
  O   O38       1.0  0.9697199999999999  0.10181999999999997  0.52127  1.0000
  C   C127      1.0  0.9339599999999999  0.08448  0.54952  1.0000
  C   C128      1.0  0.97756  0.012879999999999999  0.35787  1.0000
  C   C129      1.0  0.96706  0.98309  0.97893  1.0000
  C   C130      1.0  0.95117  0.86523  0.02205  1.0000
  H   H121      1.0  0.91541  0.76293  0.9421  1.0000
  H   H122      1.0  0.89067  0.7988499999999998  0.82517  1.0000
  H   H123      1.0  0.9583499999999999  0.90936  0.75782  1.0000
  H   H124      1.0  0.91397  0.92541  0.7457  1.0000
  H   H125      1.0  0.94654  0.02489  0.80641  1.0000
  H   H126      1.0  0.88394  0.00997  0.89306  1.0000
  H   H127      1.0  0.90728  0.05409  0.008040000000000047  1.0000
  H   H128      1.0  0.8689799999999999  0.96816  0.12624999999999997  1.0000
  H   H129      1.0  0.86762  0.8916  0.93984  1.0000
  H   H130      1.0  0.8803699999999999  0.85195  0.0847500000000001  1.0000
  H   H131      1.0  0.9142699999999999  0.9140099999999999  0.2458  1.0000
  H   H132      1.0  0.9240899999999999  0.99829  0.21367  1.0000
  H   H133      1.0  0.97573  0.8898399999999999  0.26811  1.0000
  H   H134      1.0  0.007779999999999998  0.9016399999999999  0.13129  1.0000
  H   H135      1.0  0.043859999999999996  0.9947499999999999  0.115  1.0000
  H   H136      1.0  0.030489999999999996  0.14003  0.41592999999999997  1.0000
  H   H137      1.0  0.9201999999999999  0.09019  0.45911  1.0000
  H   H138      1.0  0.9222599999999999  0.11716999999999998  0.62717  1.0000
  H   H139      1.0  0.93071  0.03429  0.58907  1.0000
  H   H140      1.0  0.9538699999999999  0.9886199999999999  0.39765  1.0000
  H   H141      1.0  0.9707999999999999  0.0313  0.023560000000000025  1.0000
  H   H142      1.0  0.99194  0.97075  0.9219800000000001  1.0000
  H   H143      1.0  0.94387  0.82762  0.10021  1.0000
  H   H144      1.0  0.97594  0.85082  0.96746  1.0000
  C   C131      1.0  0.54577  0.20074999999999998  0.8091699999999998  1.0000
  C   C132      1.0  0.52777  0.13327  0.79483  1.0000
  C   C133      1.0  0.48929  0.13154  0.8547899999999999  1.0000
  C   C134      1.0  0.47265  0.06422  0.83512  1.0000
  C   C135      1.0  0.4742199999999999  0.04978  0.6851  1.0000
  C   C136      1.0  0.5122  0.05071  0.62432  1.0000
  C   C137      1.0  0.52897  0.11763  0.64407  1.0000
  C   C138      1.0  0.5320299999999999  0.9987899999999998  0.69329  1.0000
  C   C139      1.0  0.53062  0.011929999999999994  0.8451599999999999  1.0000
  C   C140      1.0  0.55224  0.9621799999999999  0.91505  1.0000
  C   C141      1.0  0.5400399999999999  0.89295  0.9043699999999999  1.0000
  C   C142      1.0  0.5138099999999999  0.86801  0.9968999999999999  1.0000
  C   C143      1.0  0.5011499999999999  0.80462  0.98719  1.0000
  C   C144      1.0  0.51569  0.76517  0.8851999999999999  1.0000
  C   C145      1.0  0.5432  0.78818  0.79465  1.0000
  O   O39       1.0  0.55738  0.74491  0.6978399999999999  1.0000
  C   C146      1.0  0.58334  0.76865  0.59735  1.0000
  C   C147      1.0  0.5551699999999999  0.8527799999999999  0.80466  1.0000
  C   C148      1.0  0.49217  0.011869999999999999  0.90521  1.0000
  C   C149      1.0  0.54669  0.07991  0.86503  1.0000
  H   H145      1.0  0.57159  0.20218  0.75233  1.0000
  H   H146      1.0  0.53089  0.23836  0.76279  1.0000
  H   H147      1.0  0.48694  0.14137  0.96316  1.0000
  H   H148      1.0  0.47479999999999994  0.16915999999999998  0.80642  1.0000
  H   H149      1.0  0.44522999999999996  0.06365  0.8783500000000001  1.0000
  H   H150      1.0  0.45957  0.08618  0.63398  1.0000
  H   H151      1.0  0.46187999999999996  0.0017899999999999997  0.66995  1.0000
  H   H152      1.0  0.51321  0.04064  0.51592  1.0000
  H   H153      1.0  0.51523  0.15492  0.59145  1.0000
  H   H154      1.0  0.55612  0.11824999999999998  0.59752  1.0000
  H   H155      1.0  0.5592699999999999  0.99886  0.64772  1.0000
  H   H156      1.0  0.52035  0.9505799999999999  0.67548  1.0000
  H   H157      1.0  0.57975  0.96684  0.8728699999999999  1.0000
  H   H158      1.0  0.55216  0.97427  0.02224  1.0000
  H   H159      1.0  0.50231  0.8992099999999998  0.07368  1.0000
  H   H160      1.0  0.50583  0.71615  0.8767199999999998  1.0000
  H   H161      1.0  0.57292  0.80723  0.5369  1.0000
  H   H162      1.0  0.59145  0.7287  0.52937  1.0000
  H   H163      1.0  0.60649  0.78656  0.64288  1.0000
  H   H164      1.0  0.57582  0.87259  0.735  1.0000
  H   H165      1.0  0.4793  0.96424  0.89157  1.0000
  H   H166      1.0  0.4903  0.02103  0.01415  1.0000
  H   H167      1.0  0.57404  0.08022  0.82504  1.0000
  H   H168      1.0  0.5457999999999998  0.08975  0.9734499999999999  1.0000
  C   C150      1.0  0.05271  0.28508999999999995  0.57298  1.0000
  C   C151      1.0  0.01859  0.32292999999999994  0.58662  1.0000
  C   C152      1.0  0.9987799999999999  0.31644  0.46108  1.0000
  C   C153      1.0  0.96473  0.35289  0.48116  1.0000
  C   C154      1.0  0.9420099999999999  0.32437999999999995  0.60285  1.0000
  C   C155      1.0  0.96108  0.3318  0.72849  1.0000
  C   C156      1.0  0.99514  0.29536  0.70937  1.0000
  C   C157      1.0  0.9689499999999999  0.40385  0.75213  1.0000
  C   C158      1.0  0.99198  0.43352  0.63052  1.0000
  C   C159      1.0  0.001430000000000002  0.50558  0.65552  1.0000
  C   C160      1.0  0.9707  0.54879  0.67527  1.0000
  C   C161      1.0  0.9569099999999999  0.5742  0.56393  1.0000
  C   C162      1.0  0.9265499999999999  0.60944  0.57816  1.0000
  C   C163      1.0  0.9112  0.62195  0.70567  1.0000
  C   C164      1.0  0.9259399999999999  0.60196  0.8183  1.0000
  O   O40       1.0  0.9090499999999999  0.62087  0.94057  1.0000
  C   C165      1.0  0.9209399999999999  0.5986  0.06014000000000008  1.0000
  C   C166      1.0  0.9557299999999999  0.56419  0.80344  1.0000
  C   C167      1.0  0.9725699999999999  0.42509  0.50412  1.0000
  C   C168      1.0  0.026079999999999996  0.39561999999999997  0.61003  1.0000
  H   H169      1.0  0.06727  0.29594  0.65973  1.0000
  H   H170      1.0  0.04662  0.23232  0.57736  1.0000
  H   H171      1.0  0.01426  0.33762  0.37181  1.0000
  H   H172      1.0  0.9933699999999999  0.26471000000000006  0.44074  1.0000
  H   H173      1.0  0.95082  0.34777  0.39082  1.0000
  H   H174      1.0  0.93598  0.27251  0.58636  1.0000
  H   H175      1.0  0.9170699999999999  0.3495  0.61632  1.0000
  H   H176      1.0  0.9445899999999999  0.3112599999999999  0.81617  1.0000
  H   H177      1.0  0.9893  0.24314999999999998  0.69593  1.0000
  H   H178      1.0  0.00854  0.29957  0.80114  1.0000
  H   H179      1.0  0.9820199999999999  0.40903999999999996  0.8444599999999999  1.0000
  H   H180      1.0  0.94415  0.4293699999999999  0.76825  1.0000
  H   H181      1.0  0.01602  0.5085299999999999  0.74438  1.0000
  H   H182      1.0  0.01935  0.52477  0.57033  1.0000
  H   H183      1.0  0.9691399999999999  0.56402  0.46542999999999995  1.0000
  H   H184      1.0  0.8872299999999999  0.64657  0.71981  1.0000
  H   H185      1.0  0.9198799999999999  0.54499  0.0662799999999999  1.0000
  H   H186      1.0  0.9028999999999999  0.61732  0.14139999999999997  1.0000
  H   H187      1.0  0.94732  0.61831  0.06991999999999998  1.0000
  H   H188      1.0  0.96703  0.54597  0.8893499999999999  1.0000
  H   H189      1.0  0.94762  0.45014999999999994  0.51583  1.0000
  H   H190      1.0  0.98825  0.44615  0.41496999999999995  1.0000
  H   H191      1.0  0.040479999999999995  0.40108999999999995  0.69906  1.0000
  H   H192      1.0  0.04286000000000001  0.4163  0.52311  1.0000
