data_image0
_chemical_formula_structural       EuOCO6COC2EuOCO6COC2EuOCO6COC10OC2H12C8OC2H12C8OC2H12C8OC2H12C8OC2H12C8OC2H12
_chemical_formula_sum              "Eu3 O30 C72 H72"
_cell_length_a       19.5192
_cell_length_b       20.3784
_cell_length_c       18.8635
_cell_angle_alpha    105.6495
_cell_angle_beta     99.4855
_cell_angle_gamma    105.4373

_symmetry_space_group_name_H-M    'P 1'
_symmetry_Int_Tables_number       1

loop_
  _symmetry_equiv_pos_as_xyz
  'x,y,z'

loop_
  _atom_site_type_symbol
  _atom_site_label
  _atom_site_symmetry_multiplicity
  _atom_site_fract_x
  _atom_site_fract_y
  _atom_site_fract_z
  _atom_site_occupancy
  Eu  Eu1       1.0  0.41091000000000005  0.50066  0.8079699999999997  1.0000
  O   O1        1.0  0.27244  0.53455  0.81868  1.0000
  C   C1        1.0  0.52268  0.46557999999999994  0.91225  1.0000
  O   O2        1.0  0.47504  0.63792  0.78247  1.0000
  O   O3        1.0  0.37247  0.54474  0.7153  1.0000
  O   O4        1.0  0.5062600000000002  0.50623  0.69759  1.0000
  O   O5        1.0  0.5602  0.5066099999999999  0.8861699999999999  1.0000
  O   O6        1.0  0.44799000000000005  0.4557399999999999  0.89994  1.0000
  O   O7        1.0  0.29384  0.42803  0.78891  1.0000
  C   C2        1.0  0.24979  0.4701099999999999  0.80851  1.0000
  O   O8        1.0  0.4361900000000001  0.4126099999999999  0.7230099999999999  1.0000
  C   C3        1.0  0.4932300000000001  0.44353  0.69456  1.0000
  C   C4        1.0  0.42062  0.6133199999999999  0.7289  1.0000
  Eu  Eu2       1.0  0.01640999999999999  0.5524  0.27575  1.0000
  O   O9        1.0  0.9114300000000001  0.52236  0.3639799999999999  1.0000
  C   C5        1.0  0.04619999999999995  0.7143899999999999  0.34202999999999995  1.0000
  O   O10       1.0  0.88965  0.3844699999999999  0.0774  1.0000
  O   O11       1.0  0.9517700000000002  0.43631  0.20056  1.0000
  O   O12       1.0  0.06312000000000001  0.52255  0.13457  1.0000
  O   O13       1.0  0.99081  0.71021  0.36510999999999993  1.0000
  O   O14       1.0  0.08484  0.66734  0.34986  1.0000
  O   O15       1.0  0.02605999999999999  0.51648  0.37986  1.0000
  C   C6        1.0  0.9599800000000002  0.50821  0.40032  1.0000
  O   O16       1.0  0.12094999999999997  0.5322599999999998  0.25200999999999996  1.0000
  C   C7        1.0  0.11563000000000001  0.51715  0.17485999999999993  1.0000
  C   C8        1.0  0.90094  0.43233  0.13753  1.0000
  Eu  Eu3       1.0  0.63174  0.041029999999999955  0.50712  1.0000
  O   O17       1.0  0.6866100000000002  0.16841999999999993  0.46637999999999996  1.0000
  C   C9        1.0  0.47432000000000013  0.9551  0.41559  1.0000
  O   O18       1.0  0.73501  0.18058  0.73471  1.0000
  O   O19       1.0  0.72126  0.11896  0.61205  1.0000
  O   O20       1.0  0.55052  0.90137  0.5226799999999999  1.0000
  O   O21       1.0  0.46621  0.005670000000000076  0.46143999999999996  1.0000
  O   O22       1.0  0.54316  0.9613999999999999  0.40198  1.0000
  O   O23       1.0  0.71197  0.06460000000000003  0.43513  1.0000
  C   C10       1.0  0.72253  0.13489  0.43502  1.0000
  O   O24       1.0  0.6704100000000001  0.9504999999999999  0.52969  1.0000
  C   C11       1.0  0.61308  0.9007699999999998  0.5417  1.0000
  C   C12       1.0  0.69295  0.14126000000000002  0.67374  1.0000
  C   C13       1.0  0.17431999999999997  0.43632999999999994  0.8162899999999997  1.0000
  C   C14       1.0  0.17134  0.46071999999999996  0.8998699999999998  1.0000
  C   C15       1.0  0.2037700000000001  0.41877  0.94527  1.0000
  C   C16       1.0  0.21812000000000004  0.4532399999999999  0.03044  1.0000
  C   C17       1.0  0.16220000000000004  0.46931999999999996  0.06259999999999999  1.0000
  C   C18       1.0  0.17434  0.49813  0.14181  1.0000
  C   C19       1.0  0.2426  0.50881  0.18916  1.0000
  C   C20       1.0  0.29912  0.49149999999999994  0.15781  1.0000
  O   O25       1.0  0.36827999999999994  0.49855999999999995  0.20158  1.0000
  C   C21       1.0  0.3778600000000001  0.51205  0.28129  1.0000
  C   C22       1.0  0.28647000000000006  0.46537  0.07865999999999997  1.0000
  H   H1        1.0  0.13425  0.4523  0.7814  1.0000
  H   H2        1.0  0.15895  0.37672999999999995  0.79439  1.0000
  H   H3        1.0  0.11271000000000003  0.45070999999999994  0.90062  1.0000
  H   H4        1.0  0.20043000000000005  0.51961  0.9268  1.0000
  H   H5        1.0  0.16433  0.3633  0.92854  1.0000
  H   H6        1.0  0.25549  0.41376999999999997  0.9304299999999999  1.0000
  H   H7        1.0  0.10889  0.45860999999999996  0.025619999999999976  1.0000
  H   H8        1.0  0.25141  0.53074  0.25005  1.0000
  H   H9        1.0  0.43286000000000013  0.51035  0.30535  1.0000
  H   H10       1.0  0.33561  0.46998999999999996  0.2926899999999999  1.0000
  H   H11       1.0  0.37594  0.56645  0.30985  1.0000
  H   H12       1.0  0.32968000000000003  0.4520199999999999  0.05463  1.0000
  C   C23       1.0  0.94788  0.48273999999999995  0.4665099999999999  1.0000
  C   C24       1.0  0.9369  0.4017399999999999  0.44718999999999987  1.0000
  C   C25       1.0  0.86473  0.3559  0.38678  1.0000
  C   C26       1.0  0.84819  0.27708  0.3778  1.0000
  C   C27       1.0  0.7951300000000002  0.24343999999999996  0.40994999999999987  1.0000
  C   C28       1.0  0.77842  0.16976999999999995  0.40071999999999997  1.0000
  C   C29       1.0  0.81529  0.12968999999999997  0.35849999999999993  1.0000
  C   C30       1.0  0.8691100000000003  0.16298  0.32593  1.0000
  O   O26       1.0  0.9071700000000001  0.12616999999999998  0.28155  1.0000
  C   C31       1.0  0.89484  0.05174999999999999  0.27291  1.0000
  C   C32       1.0  0.88496  0.23662  0.33625  1.0000
  H   H13       1.0  0.99591  0.51382  0.51649  1.0000
  H   H14       1.0  0.8986100000000001  0.49313999999999997  0.48356999999999994  1.0000
  H   H15       1.0  0.93552  0.38835  0.50036  1.0000
  H   H16       1.0  0.9836400000000001  0.38951  0.42626  1.0000
  H   H17       1.0  0.81876  0.37425  0.4028  1.0000
  H   H18       1.0  0.8677000000000001  0.36324999999999996  0.33094  1.0000
  H   H19       1.0  0.7672400000000003  0.27487  0.44261  1.0000
  H   H20       1.0  0.80118  0.07276999999999999  0.35065  1.0000
  H   H21       1.0  0.9295800000000001  0.031799999999999995  0.23717999999999997  1.0000
  H   H22       1.0  0.83652  0.019209999999999994  0.24344  1.0000
  H   H23       1.0  0.9100300000000002  0.04469  0.32913  1.0000
  H   H24       1.0  0.92597  0.26239  0.3112  1.0000
  C   C33       1.0  0.8646700000000002  0.48939999999999995  0.14196999999999996  1.0000
  C   C34       1.0  0.7802600000000002  0.45792  0.12227  1.0000
  C   C35       1.0  0.7456800000000002  0.41956  0.03653  1.0000
  C   C36       1.0  0.6636800000000003  0.40479  0.017670000000000075  1.0000
  C   C37       1.0  0.6322800000000002  0.44059  0.9745899999999998  1.0000
  C   C38       1.0  0.55605  0.42773999999999995  0.95759  1.0000
  C   C39       1.0  0.51139  0.37858  0.98443  1.0000
  C   C40       1.0  0.54229  0.34193  0.02774999999999994  1.0000
  O   O27       1.0  0.50081  0.29177  0.0563800000000001  1.0000
  C   C41       1.0  0.42282000000000003  0.27585  0.03974999999999995  1.0000
  C   C42       1.0  0.61831  0.35551  0.04364999999999997  1.0000
  H   H25       1.0  0.8837800000000001  0.52803  0.20104  1.0000
  H   H26       1.0  0.8813100000000001  0.52123  0.10445  1.0000
  H   H27       1.0  0.7591100000000001  0.50343  0.14214  1.0000
  H   H28       1.0  0.7641  0.42029  0.15425  1.0000
  H   H29       1.0  0.7714900000000001  0.4537999999999999  0.004709999999999992  1.0000
  H   H30       1.0  0.7560800000000002  0.36745  0.0178  1.0000
  H   H31       1.0  0.66724  0.47877  0.9545699999999999  1.0000
  H   H32       1.0  0.45295  0.36905  0.97123  1.0000
  H   H33       1.0  0.39944000000000013  0.23624000000000003  0.06701000000000001  1.0000
  H   H34       1.0  0.39807000000000003  0.2512999999999999  0.9774599999999999  1.0000
  H   H35       1.0  0.4086200000000001  0.32513999999999993  0.06324  1.0000
  H   H36       1.0  0.6419  0.32716  0.07649  1.0000
  C   C43       1.0  0.07196999999999991  0.7709699999999999  0.3062499999999999  1.0000
  C   C44       1.0  0.14957000000000006  0.77999  0.29439999999999994  1.0000
  C   C45       1.0  0.20939000000000005  0.80903  0.36979  1.0000
  C   C46       1.0  0.28480000000000005  0.81467  0.3567399999999999  1.0000
  C   C47       1.0  0.34175999999999995  0.8809999999999999  0.38703999999999994  1.0000
  C   C48       1.0  0.4128500000000001  0.88637  0.37805  1.0000
  C   C49       1.0  0.42609000000000014  0.82451  0.33659  1.0000
  C   C50       1.0  0.36906000000000005  0.7572499999999999  0.30509  1.0000
  O   O28       1.0  0.378  0.69291  0.2628  1.0000
  C   C51       1.0  0.44951  0.6951  0.25271  1.0000
  C   C52       1.0  0.29930999999999996  0.7531199999999998  0.31675  1.0000
  H   H37       1.0  0.03273000000000002  0.75529  0.25029  1.0000
  H   H38       1.0  0.06929  0.82302  0.34144999999999986  1.0000
  H   H39       1.0  0.16150999999999996  0.81904  0.2629  1.0000
  H   H40       1.0  0.15035000000000007  0.72725  0.25819  1.0000
  H   H41       1.0  0.20813999999999996  0.8624799999999999  0.40319  1.0000
  H   H42       1.0  0.19842999999999997  0.77356  0.4048  1.0000
  H   H43       1.0  0.33103  0.9282599999999999  0.41901  1.0000
  H   H44       1.0  0.48080000000000006  0.8288299999999998  0.32969  1.0000
  H   H45       1.0  0.4465700000000001  0.64069  0.21789  1.0000
  H   H46       1.0  0.48932000000000003  0.7103299999999999  0.3086799999999999  1.0000
  H   H47       1.0  0.4682800000000001  0.73291  0.22168  1.0000
  H   H48       1.0  0.25654  0.70103  0.29475  1.0000
  C   C53       1.0  0.6289300000000001  0.84793  0.57892  1.0000
  C   C54       1.0  0.56003  0.7884  0.577  1.0000
  C   C55       1.0  0.51577  0.8163499999999999  0.63134  1.0000
  C   C56       1.0  0.4529400000000001  0.75467  0.63148  1.0000
  C   C57       1.0  0.46507000000000004  0.7137199999999999  0.67822  1.0000
  C   C58       1.0  0.40751  0.6553599999999999  0.6783399999999999  1.0000
  C   C59       1.0  0.33746000000000004  0.63759  0.63023  1.0000
  C   C60       1.0  0.32413999999999993  0.6790099999999999  0.5833599999999998  1.0000
  O   O29       1.0  0.25502  0.66556  0.53495  1.0000
  C   C61       1.0  0.1942  0.60707  0.53299  1.0000
  C   C62       1.0  0.38248999999999994  0.7371999999999999  0.5846099999999997  1.0000
  H   H49       1.0  0.6640300000000001  0.8218599999999999  0.5490699999999997  1.0000
  H   H50       1.0  0.6610400000000002  0.8778  0.6387099999999998  1.0000
  H   H51       1.0  0.57814  0.74615  0.59349  1.0000
  H   H52       1.0  0.5245299999999999  0.7628199999999999  0.51784  1.0000
  H   H53       1.0  0.55172  0.84464  0.69005  1.0000
  H   H54       1.0  0.49406000000000005  0.85611  0.614  1.0000
  H   H55       1.0  0.5196700000000001  0.7273200000000001  0.71427  1.0000
  H   H56       1.0  0.2935  0.59247  0.63077  1.0000
  H   H57       1.0  0.14469000000000004  0.60498  0.49291  1.0000
  H   H58       1.0  0.18311000000000005  0.61536  0.59008  1.0000
  H   H59       1.0  0.20441000000000004  0.55498  0.51199  1.0000
  H   H60       1.0  0.37282  0.7687  0.54846  1.0000
  C   C63       1.0  0.6114500000000002  0.12199999999999991  0.66403  1.0000
  C   C64       1.0  0.5817200000000001  0.17376999999999995  0.6322699999999999  1.0000
  C   C65       1.0  0.6051199999999999  0.24909999999999993  0.6923799999999999  1.0000
  C   C66       1.0  0.5904900000000001  0.30491  0.6590999999999998  1.0000
  C   C67       1.0  0.54253  0.3413  0.68356  1.0000
  C   C68       1.0  0.5389600000000001  0.4018699999999999  0.6632299999999998  1.0000
  C   C69       1.0  0.58303  0.42532  0.6172  1.0000
  C   C70       1.0  0.62926  0.38747999999999994  0.58962  1.0000
  O   O30       1.0  0.6747800000000002  0.40790999999999994  0.54315  1.0000
  C   C71       1.0  0.6789900000000002  0.47352  0.5277  1.0000
  C   C72       1.0  0.63191  0.327  0.61044  1.0000
  H   H61       1.0  0.58433  0.06580999999999998  0.62488  1.0000
  H   H62       1.0  0.5982600000000001  0.12348999999999993  0.7193999999999998  1.0000
  H   H63       1.0  0.5205100000000001  0.1515499999999999  0.6139899999999998  1.0000
  H   H64       1.0  0.60148  0.17692999999999992  0.5809099999999998  1.0000
  H   H65       1.0  0.5770000000000001  0.24534999999999998  0.73846  1.0000
  H   H66       1.0  0.6649500000000003  0.26814  0.71942  1.0000
  H   H67       1.0  0.51107  0.32475999999999994  0.7217  1.0000
  H   H68       1.0  0.58068  0.4731  0.60349  1.0000
  H   H69       1.0  0.7177300000000001  0.48192999999999997  0.49158999999999997  1.0000
  H   H70       1.0  0.69997  0.5202  0.5814  1.0000
  H   H71       1.0  0.6242899999999999  0.4698899999999999  0.49562  1.0000
  H   H72       1.0  0.6695000000000001  0.2995  0.59174  1.0000
