data_image0
_chemical_formula_structural       EuOCO6COC2EuOCO6COC2EuOCO6COC2EuOCO6COC22H12C20H12C20H12C20H12C20H12C20H12C20H12C20H12
_chemical_formula_sum              "Eu4 O32 C176 H96"
_cell_length_a       29.9135
_cell_length_b       31.5015
_cell_length_c       20.0898
_cell_angle_alpha    86.9657
_cell_angle_beta     91.8195
_cell_angle_gamma    85.8412

_space_group_name_H-M_alt    "P 1"
_space_group_IT_number       1

loop_
  _space_group_symop_operation_xyz
  'x, y, z'

loop_
  _atom_site_type_symbol
  _atom_site_label
  _atom_site_symmetry_multiplicity
  _atom_site_fract_x
  _atom_site_fract_y
  _atom_site_fract_z
  _atom_site_occupancy
  Eu  Eu1       1.0  0.7033400000000001  0.03741  0.78052  1.0000
  O   O1        1.0  0.8024700000000002  0.04532  0.73988  1.0000
  C   C1        1.0  0.6575600000000003  0.99802  0.66312  1.0000
  O   O2        1.0  0.7820400000000004  0.99694  0.95719  1.0000
  O   O3        1.0  0.7528400000000002  0.037779999999999925  0.8696099999999999  1.0000
  O   O4        1.0  0.5904100000000002  0.11274999999999992  0.8508099999999998  1.0000
  O   O5        1.0  0.6867500000000002  0.9711700000000001  0.68376  1.0000
  O   O6        1.0  0.65295  0.03679000000000002  0.69311  1.0000
  O   O7        1.0  0.7392600000000003  0.08937000000000003  0.7246  1.0000
  C   C2        1.0  0.78546  0.08053  0.72231  1.0000
  O   O8        1.0  0.66002  0.09064  0.825  1.0000
  C   C3        1.0  0.6183800000000003  0.08264000000000002  0.85065  1.0000
  C   C4        1.0  0.77237  0.99891  0.89767  1.0000
  Eu  Eu2       1.0  0.04434  0.33422999999999997  0.50305  1.0000
  O   O9        1.0  0.0016400000000003074  0.2643000000000001  0.58998  1.0000
  C   C5        1.0  0.06009000000000002  0.40336  0.59919  1.0000
  O   O10       1.0  0.08677000000000001  0.27197000000000005  0.378  1.0000
  O   O11       1.0  0.04806999999999999  0.2657600000000001  0.47209  1.0000
  O   O12       1.0  0.056959999999999976  0.4052300000000001  0.39432  1.0000
  O   O13       1.0  0.08094  0.37164000000000014  0.62463  1.0000
  O   O14       1.0  0.04052000000000001  0.40236  0.53567  1.0000
  O   O15       1.0  0.9748400000000003  0.3285  0.54402  1.0000
  C   C6        1.0  0.9695100000000002  0.29  0.57885  1.0000
  O   O16       1.0  0.00841  0.35382  0.40343  1.0000
  C   C7        1.0  0.025619999999999993  0.3882400000000001  0.36954  1.0000
  C   C8        1.0  0.08587999999999997  0.25734000000000024  0.43535  1.0000
  Eu  Eu3       1.0  0.35344000000000003  0.9920000000000001  0.25247  1.0000
  O   O17       1.0  0.3196700000000001  0.02666000000000001  0.37433  1.0000
  C   C9        1.0  0.4324700000000001  0.97304  0.3541  1.0000
  O   O18       1.0  0.3252500000000001  0.9247600000000002  0.15842  1.0000
  O   O19       1.0  0.2863400000000001  0.97951  0.20332999999999998  1.0000
  O   O20       1.0  0.42258  0.9511800000000002  0.17404  1.0000
  O   O21       1.0  0.4036900000000001  0.9574600000000001  0.38702  1.0000
  O   O22       1.0  0.4204900000000001  0.0032900000000000034  0.30259  1.0000
  O   O23       1.0  0.3254300000000001  0.05904  0.27273  1.0000
  C   C10       1.0  0.30916  0.057620000000000005  0.3367  1.0000
  O   O24       1.0  0.3819200000000001  0.013680000000000001  0.15326  1.0000
  C   C11       1.0  0.4177400000000001  0.98483  0.14101  1.0000
  C   C12       1.0  0.2892799999999999  0.9396400000000003  0.17673  1.0000
  Eu  Eu4       1.0  0.03975999999999998  0.6948800000000003  0.9827899999999999  1.0000
  O   O25       1.0  0.007179999999999957  0.7664500000000002  0.89275  1.0000
  C   C13       1.0  0.03673999999999999  0.6343900000000002  0.86445  1.0000
  O   O26       1.0  0.10237000000000006  0.76047  0.01708  1.0000
  O   O27       1.0  0.05998999999999999  0.7204900000000002  0.0822  1.0000
  O   O28       1.0  0.07909000000000002  0.62691  0.08029  1.0000
  O   O29       1.0  0.06051000000000001  0.61245  0.90514  1.0000
  O   O30       1.0  0.016560000000000005  0.67311  0.88196  1.0000
  O   O31       1.0  0.9751300000000002  0.7376200000000003  0.9826699999999999  1.0000
  C   C14       1.0  0.9752700000000002  0.7673200000000002  0.92902  1.0000
  O   O32       1.0  0.008640000000000002  0.63928  0.03648  1.0000
  C   C15       1.0  0.041370000000000004  0.6149200000000002  0.0754  1.0000
  C   C16       1.0  0.08561999999999997  0.7550800000000002  0.0711  1.0000
  C   C17       1.0  0.6075000000000002  0.04072999999999993  0.8814399999999999  1.0000
  C   C18       1.0  0.6359000000000002  0.0034099999999999153  0.87789  1.0000
  C   C19       1.0  0.6248900000000001  0.9648900000000002  0.9086399999999999  1.0000
  C   C20       1.0  0.58636  0.96332  0.9456799999999999  1.0000
  C   C21       1.0  0.5584300000000002  0.00037000000000020784  0.95196  1.0000
  C   C22       1.0  0.5212  7.00000000002395e-05  0.99907  1.0000
  C   C23       1.0  0.47696000000000016  0.99403  0.9761800000000002  1.0000
  C   C24       1.0  0.46691000000000016  0.9894400000000001  0.90785  1.0000
  C   C25       1.0  0.42347  0.9830200000000001  0.88556  1.0000
  C   C26       1.0  0.38926000000000005  0.9809300000000001  0.93065  1.0000
  C   C27       1.0  0.39825999999999995  0.98504  0.99841  1.0000
  C   C28       1.0  0.4420000000000001  0.9916600000000001  0.0224  1.0000
  C   C29       1.0  0.4515300000000001  0.9950000000000001  0.0913  1.0000
  C   C30       1.0  0.49532000000000004  0.0033000000000003036  0.11359999999999999  1.0000
  C   C31       1.0  0.5051100000000002  0.009619999999999962  0.18149  1.0000
  C   C32       1.0  0.5483700000000002  0.01655999999999991  0.20389999999999997  1.0000
  C   C33       1.0  0.5827300000000002  0.017880000000000118  0.15913  1.0000
  C   C34       1.0  0.57396  0.012550000000000063  0.09168  1.0000
  C   C35       1.0  0.53027  0.005390000000000229  0.06761  1.0000
  C   C36       1.0  0.56851  0.03862000000000002  0.91892  1.0000
  H   H1        1.0  0.6669300000000002  0.0034799999999999254  0.8528800000000001  1.0000
  H   H2        1.0  0.64706  0.9364200000000003  0.9054  1.0000
  H   H3        1.0  0.5791  0.9336700000000002  0.9714299999999999  1.0000
  H   H4        1.0  0.49248  0.9907000000000001  0.87104  1.0000
  H   H5        1.0  0.41635  0.9796000000000001  0.83303  1.0000
  H   H6        1.0  0.3555700000000001  0.97599  0.91304  1.0000
  H   H7        1.0  0.3706000000000001  0.9832100000000001  0.03163  1.0000
  H   H8        1.0  0.4793800000000001  0.009700000000000007  0.21782  1.0000
  H   H9        1.0  0.5552000000000001  0.02098000000000022  0.25623  1.0000
  H   H10       1.0  0.6163100000000002  0.023320000000000007  0.17665  1.0000
  H   H11       1.0  0.60179  0.014150000000000109  0.05877  1.0000
  H   H12       1.0  0.54681  0.06709  0.92515  1.0000
  C   C37       1.0  0.005359999999999999  0.40382  0.30389  1.0000
  C   C38       1.0  0.9723400000000001  0.3810000000000001  0.27335  1.0000
  C   C39       1.0  0.9522600000000001  0.39567000000000013  0.21193999999999996  1.0000
  C   C40       1.0  0.96471  0.43328  0.18035  1.0000
  C   C41       1.0  0.9975000000000002  0.45643  0.2101  1.0000
  C   C42       1.0  0.00964  0.49699  0.17705  1.0000
  C   C43       1.0  0.04295  0.49653000000000014  0.12857  1.0000
  C   C44       1.0  0.06617000000000002  0.4578500000000001  0.11254000000000002  1.0000
  C   C45       1.0  0.09807000000000002  0.45723000000000014  0.06353  1.0000
  C   C46       1.0  0.10747  0.4948700000000001  0.029420000000000005  1.0000
  C   C47       1.0  0.08537000000000003  0.53345  0.04453  1.0000
  C   C48       1.0  0.05318  0.53522  0.0947  1.0000
  C   C49       1.0  0.030629999999999984  0.5744700000000003  0.11048000000000001  1.0000
  C   C50       1.0  0.99777  0.5748900000000002  0.15987  1.0000
  C   C51       1.0  0.9755500000000003  0.61355  0.17812  1.0000
  C   C52       1.0  0.9428400000000002  0.6137200000000003  0.22600000000000003  1.0000
  C   C53       1.0  0.9317900000000002  0.5756600000000002  0.25717  1.0000
  C   C54       1.0  0.9535700000000003  0.53719  0.24102  1.0000
  C   C55       1.0  0.9870000000000002  0.53604  0.19271  1.0000
  C   C56       1.0  0.017959999999999993  0.4416200000000001  0.27162  1.0000
  H   H13       1.0  0.9618900000000001  0.3518100000000001  0.29694  1.0000
  H   H14       1.0  0.9267500000000001  0.37796000000000013  0.18904  1.0000
  H   H15       1.0  0.9486600000000001  0.44457000000000013  0.13298  1.0000
  H   H16       1.0  0.0599  0.42769  0.13753  1.0000
  H   H17       1.0  0.11541000000000001  0.4273400000000001  0.05173  1.0000
  H   H18       1.0  0.132  0.49418000000000006  0.9909400000000002  1.0000
  H   H19       1.0  0.09370000000000005  0.56166  0.01603  1.0000
  H   H20       1.0  0.9832600000000001  0.6440800000000002  0.15603  1.0000
  H   H21       1.0  0.9260100000000002  0.6435600000000002  0.23905000000000004  1.0000
  H   H22       1.0  0.90634  0.57593  0.2943  1.0000
  H   H23       1.0  0.9439400000000001  0.5084500000000002  0.26689  1.0000
  H   H24       1.0  0.04309000000000002  0.4598800000000001  0.29442  1.0000
  C   C57       1.0  0.4799600000000002  0.9589300000000002  0.36662  1.0000
  C   C58       1.0  0.50346  0.93794  0.31709  1.0000
  C   C59       1.0  0.5491400000000002  0.92585  0.32655  1.0000
  C   C60       1.0  0.57176  0.9349000000000002  0.38528  1.0000
  C   C61       1.0  0.5487000000000002  0.9560100000000002  0.43509000000000003  1.0000
  C   C62       1.0  0.5740300000000003  0.9681900000000002  0.49488  1.0000
  C   C63       1.0  0.5757900000000002  0.9419400000000002  0.55439  1.0000
  C   C64       1.0  0.55256  0.9043800000000002  0.55857  1.0000
  C   C65       1.0  0.55393  0.8787500000000003  0.61736  1.0000
  C   C66       1.0  0.57768  0.8902500000000002  0.67335  1.0000
  C   C67       1.0  0.60108  0.9269400000000002  0.67051  1.0000
  C   C68       1.0  0.6016300000000001  0.9528200000000002  0.61072  1.0000
  C   C69       1.0  0.6272600000000003  0.9890800000000001  0.60649  1.0000
  C   C70       1.0  0.6255100000000001  0.015320000000000004  0.54662  1.0000
  C   C71       1.0  0.65134  0.05118  0.53991  1.0000
  C   C72       1.0  0.6498400000000001  0.07646000000000003  0.48068  1.0000
  C   C73       1.0  0.62292  0.06669  0.42685  1.0000
  C   C74       1.0  0.59742  0.0315  0.43176  1.0000
  C   C75       1.0  0.5985200000000003  0.005030000000000003  0.49108999999999997  1.0000
  C   C76       1.0  0.50256  0.9675900000000001  0.42609  1.0000
  H   H25       1.0  0.4864400000000002  0.9309200000000002  0.27109  1.0000
  H   H26       1.0  0.56715  0.90991  0.28796  1.0000
  H   H27       1.0  0.60739  0.92614  0.39165  1.0000
  H   H28       1.0  0.53328  0.89434  0.5165  1.0000
  H   H29       1.0  0.53621  0.8499800000000002  0.61956  1.0000
  H   H30       1.0  0.57809  0.8705900000000002  0.71925  1.0000
  H   H31       1.0  0.6184200000000002  0.9347500000000002  0.71578  1.0000
  H   H32       1.0  0.6733600000000002  0.05994000000000003  0.57971  1.0000
  H   H33       1.0  0.6698700000000002  0.10367999999999998  0.47644  1.0000
  H   H34       1.0  0.6220099999999998  0.08627000000000003  0.3808  1.0000
  H   H35       1.0  0.57718  0.02514  0.38834  1.0000
  H   H36       1.0  0.48477000000000015  0.9843300000000001  0.46422  1.0000
  C   C77       1.0  0.029149999999999985  0.6208400000000002  0.79598  1.0000
  C   C78       1.0  0.011199999999999986  0.6509800000000002  0.74621  1.0000
  C   C79       1.0  0.004449999999999981  0.6393500000000002  0.68084  1.0000
  C   C80       1.0  0.014810000000000009  0.5974599999999999  0.66448  1.0000
  C   C81       1.0  0.031830000000000004  0.56678  0.71358  1.0000
  C   C82       1.0  0.04073000000000003  0.52217  0.69487  1.0000
  C   C83       1.0  0.00455000000000005  0.49596999999999997  0.68765  1.0000
  C   C84       1.0  0.9612900000000002  0.5088700000000003  0.70913  1.0000
  C   C85       1.0  0.92578  0.4829800000000001  0.70205  1.0000
  C   C86       1.0  0.9324399999999999  0.44391  0.67344  1.0000
  C   C87       1.0  0.9746300000000003  0.43051  0.65156  1.0000
  C   C88       1.0  0.01133  0.45614  0.65814  1.0000
  C   C89       1.0  0.05434000000000002  0.44258  0.63626  1.0000
  C   C90       1.0  0.09117000000000003  0.4674600000000001  0.64765  1.0000
  C   C91       1.0  0.13484000000000007  0.4539100000000001  0.62866  1.0000
  C   C92       1.0  0.17074  0.4789200000000001  0.63885  1.0000
  C   C93       1.0  0.16401  0.5179500000000002  0.66754  1.0000
  C   C94       1.0  0.12131000000000004  0.53226  0.68627  1.0000
  C   C95       1.0  0.08430000000000001  0.5074100000000002  0.67696  1.0000
  C   C96       1.0  0.039299999999999995  0.57845  0.77933  1.0000
  H   H37       1.0  0.002619999999999993  0.6837200000000001  0.75762  1.0000
  H   H38       1.0  0.9910400000000003  0.66286  0.6428  1.0000
  H   H39       1.0  0.009210000000000157  0.5887100000000002  0.61363  1.0000
  H   H40       1.0  0.9546000000000002  0.5388100000000002  0.73232  1.0000
  H   H41       1.0  0.8929800000000002  0.49319000000000024  0.71923  1.0000
  H   H42       1.0  0.9048300000000001  0.4237800000000001  0.66841  1.0000
  H   H43       1.0  0.9782300000000003  0.39966000000000007  0.6303  1.0000
  H   H44       1.0  0.14181999999999997  0.4239400000000001  0.60581  1.0000
  H   H45       1.0  0.20395000000000005  0.46799000000000013  0.62418  1.0000
  H   H46       1.0  0.19200000000000006  0.53728  0.67526  1.0000
  H   H47       1.0  0.11773  0.56287  0.70827  1.0000
  H   H48       1.0  0.05238  0.55457  0.81714  1.0000
  C   C97       1.0  0.7852900000000003  0.9616400000000003  0.85781  1.0000
  C   C98       1.0  0.7723000000000002  0.9605500000000002  0.79025  1.0000
  C   C99       1.0  0.7877400000000002  0.92705  0.75223  1.0000
  C   C100      1.0  0.8175200000000002  0.89456  0.78056  1.0000
  C   C101      1.0  0.8313300000000002  0.8948200000000002  0.8477999999999999  1.0000
  C   C102      1.0  0.8669100000000002  0.86251  0.87535  1.0000
  C   C103      1.0  0.8581700000000002  0.81886  0.88255  1.0000
  C   C104      1.0  0.8145400000000003  0.8056700000000002  0.87074  1.0000
  C   C105      1.0  0.8064800000000002  0.7626000000000002  0.8740199999999999  1.0000
  C   C106      1.0  0.8415100000000002  0.73181  0.88875  1.0000
  C   C107      1.0  0.88467  0.7438700000000003  0.90178  1.0000
  C   C108      1.0  0.8936699999999999  0.7874200000000002  0.90066  1.0000
  C   C109      1.0  0.9373400000000002  0.7999100000000001  0.91535  1.0000
  C   C110      1.0  0.9454200000000003  0.8437700000000002  0.91232  1.0000
  C   C111      1.0  0.98799  0.8573600000000002  0.9307  1.0000
  C   C112      1.0  0.9967900000000002  0.9001400000000003  0.9234999999999999  1.0000
  C   C113      1.0  0.9636699999999999  0.9302400000000002  0.8977400000000001  1.0000
  C   C114      1.0  0.9211300000000002  0.9179800000000002  0.88103  1.0000
  C   C115      1.0  0.9107000000000002  0.8749200000000003  0.88988  1.0000
  C   C116      1.0  0.8141400000000001  0.92766  0.88671  1.0000
  H   H49       1.0  0.75126  0.9858000000000002  0.76563  1.0000
  H   H50       1.0  0.7775500000000002  0.9269700000000003  0.70004  1.0000
  H   H51       1.0  0.8305100000000002  0.8696100000000002  0.74982  1.0000
  H   H52       1.0  0.78622  0.8284300000000002  0.85881  1.0000
  H   H53       1.0  0.77295  0.75306  0.86442  1.0000
  H   H54       1.0  0.8352400000000002  0.6983500000000002  0.89019  1.0000
  H   H55       1.0  0.9107200000000002  0.71859  0.9121500000000001  1.0000
  H   H56       1.0  0.014919999999999992  0.8352000000000003  0.95101  1.0000
  H   H57       1.0  0.029620000000000004  0.9099000000000003  0.93735  1.0000
  H   H58       1.0  0.9709  0.96334  0.89086  1.0000
  H   H59       1.0  0.8968600000000002  0.9427300000000002  0.8607000000000001  1.0000
  H   H60       1.0  0.82551  0.92783  0.93844  1.0000
  C   C117      1.0  0.12454000000000004  0.23107000000000005  0.46613999999999994  1.0000
  C   C118      1.0  0.13151000000000004  0.22933  0.53578  1.0000
  C   C119      1.0  0.16733  0.20384000000000005  0.56615  1.0000
  C   C120      1.0  0.19604  0.17930000000000004  0.52759  1.0000
  C   C121      1.0  0.18939000000000006  0.18054  0.45808999999999994  1.0000
  C   C122      1.0  0.21807  0.15173000000000006  0.4185400000000001  1.0000
  C   C123      1.0  0.26177000000000006  0.16234000000000007  0.40237000000000006  1.0000
  C   C124      1.0  0.27694  0.20249  0.41662000000000005  1.0000
  C   C125      1.0  0.32022  0.2126  0.40175000000000005  1.0000
  C   C126      1.0  0.3492800000000001  0.18305000000000005  0.3728  1.0000
  C   C127      1.0  0.33522000000000013  0.14321  0.35826  1.0000
  C   C128      1.0  0.2913500000000001  0.13222000000000006  0.37223  1.0000
  C   C129      1.0  0.27697  0.09164000000000003  0.35834  1.0000
  C   C130      1.0  0.23222  0.08219000000000001  0.37037  1.0000
  C   C131      1.0  0.21603000000000006  0.04302999999999999  0.35255  1.0000
  C   C132      1.0  0.17244000000000007  0.0333  0.36615  1.0000
  C   C133      1.0  0.14403000000000005  0.06217000000000001  0.39754  1.0000
  C   C134      1.0  0.15888000000000005  0.10114  0.41495  1.0000
  C   C135      1.0  0.20286000000000007  0.11208  0.40114000000000005  1.0000
  C   C136      1.0  0.1541  0.20703000000000005  0.42727  1.0000
  H   H61       1.0  0.10938000000000003  0.24789000000000003  0.56664  1.0000
  H   H62       1.0  0.17251000000000005  0.20276000000000005  0.61979  1.0000
  H   H63       1.0  0.22309000000000007  0.15883000000000005  0.55182  1.0000
  H   H64       1.0  0.2555  0.22651000000000004  0.43907  1.0000
  H   H65       1.0  0.33127  0.24349000000000004  0.4129300000000001  1.0000
  H   H66       1.0  0.3829100000000001  0.1910500000000001  0.36155  1.0000
  H   H67       1.0  0.3590200000000001  0.12131000000000004  0.33578  1.0000
  H   H68       1.0  0.23668  0.019689999999999996  0.3274  1.0000
  H   H69       1.0  0.16068000000000005  0.003170000000000003  0.3523  1.0000
  H   H70       1.0  0.11026000000000002  0.0544  0.40831  1.0000
  H   H71       1.0  0.13539  0.12254000000000005  0.43903  1.0000
  H   H72       1.0  0.14883  0.20761000000000004  0.37357  1.0000
  C   C137      1.0  0.9246600000000003  0.28094000000000013  0.60195  1.0000
  C   C138      1.0  0.8913600000000002  0.3146600000000001  0.6044  1.0000
  C   C139      1.0  0.8486100000000002  0.30695  0.62552  1.0000
  C   C140      1.0  0.8383700000000001  0.26555  0.64346  1.0000
  C   C141      1.0  0.87083  0.23141000000000006  0.64033  1.0000
  C   C142      1.0  0.8578200000000001  0.18768  0.65734  1.0000
  C   C143      1.0  0.8646800000000002  0.16992  0.72341  1.0000
  C   C144      1.0  0.8919700000000003  0.18905000000000005  0.77037  1.0000
  C   C145      1.0  0.89734  0.17241  0.83603  1.0000
  C   C146      1.0  0.87569  0.13662000000000005  0.85638  1.0000
  C   C147      1.0  0.8485200000000003  0.11721  0.81126  1.0000
  C   C148      1.0  0.8426200000000003  0.13322  0.74415  1.0000
  C   C149      1.0  0.81378  0.11447000000000004  0.69859  1.0000
  C   C150      1.0  0.80965  0.1303500000000001  0.63126  1.0000
  C   C151      1.0  0.7832000000000002  0.11068  0.58384  1.0000
  C   C152      1.0  0.77871  0.12675000000000006  0.51782  1.0000
  C   C153      1.0  0.80051  0.16247  0.49748  1.0000
  C   C154      1.0  0.8269300000000003  0.18239000000000005  0.54308  1.0000
  C   C155      1.0  0.83192  0.16686000000000012  0.61049  1.0000
  C   C156      1.0  0.9141900000000002  0.2390900000000001  0.62014  1.0000
  H   H73       1.0  0.8984100000000003  0.3471100000000001  0.59043  1.0000
  H   H74       1.0  0.8232800000000002  0.3331200000000001  0.6277  1.0000
  H   H75       1.0  0.8049900000000002  0.2599099999999999  0.6595  1.0000
  H   H76       1.0  0.9094100000000002  0.21698000000000006  0.75688  1.0000
  H   H77       1.0  0.9181900000000002  0.18751000000000007  0.87143  1.0000
  H   H78       1.0  0.8797000000000003  0.12396000000000004  0.90753  1.0000
  H   H79       1.0  0.8321200000000002  0.08973000000000002  0.8298499999999999  1.0000
  H   H80       1.0  0.7659600000000002  0.08257000000000003  0.59713  1.0000
  H   H81       1.0  0.7582500000000002  0.11135  0.48227000000000003  1.0000
  H   H82       1.0  0.7969400000000002  0.17479  0.4461  1.0000
  H   H83       1.0  0.8436100000000002  0.20985999999999996  0.5249  1.0000
  H   H84       1.0  0.93921  0.21262000000000006  0.61765  1.0000
  C   C157      1.0  0.09162  0.7854400000000002  0.12357  1.0000
  C   C158      1.0  0.06132999999999999  0.7883300000000002  0.17548  1.0000
  C   C159      1.0  0.06640000000000003  0.81767  0.22449  1.0000
  C   C160      1.0  0.10204000000000006  0.84392  0.22275  1.0000
  C   C161      1.0  0.13278000000000006  0.8410100000000003  0.17169  1.0000
  C   C162      1.0  0.17261000000000007  0.8664100000000002  0.17263  1.0000
  C   C163      1.0  0.1722  0.9055600000000003  0.13448  1.0000
  C   C164      1.0  0.13383  0.9215100000000003  0.09542  1.0000
  C   C165      1.0  0.13388  0.95949  0.05659  1.0000
  C   C166      1.0  0.17186999999999997  0.9824100000000002  0.0559  1.0000
  C   C167      1.0  0.20995000000000003  0.96773  0.09455  1.0000
  C   C168      1.0  0.21080000000000007  0.92941  0.13483  1.0000
  C   C169      1.0  0.2494100000000001  0.91435  0.17434  1.0000
  C   C170      1.0  0.24954000000000012  0.8753200000000002  0.21315  1.0000
  C   C171      1.0  0.2869500000000001  0.8600600000000003  0.25496  1.0000
  C   C172      1.0  0.2872400000000001  0.8213300000000002  0.29188  1.0000
  C   C173      1.0  0.25029  0.7971700000000003  0.28889  1.0000
  C   C174      1.0  0.21257999999999996  0.8118300000000003  0.24959000000000003  1.0000
  C   C175      1.0  0.21131000000000003  0.8510900000000002  0.21153  1.0000
  C   C176      1.0  0.12727000000000002  0.8121400000000002  0.12186  1.0000
  H   H85       1.0  0.033419999999999984  0.7683100000000003  0.17771  1.0000
  H   H86       1.0  0.04279999999999998  0.8198800000000003  0.26413  1.0000
  H   H87       1.0  0.10615000000000005  0.86603  0.26159  1.0000
  H   H88       1.0  0.10348999999999998  0.9047900000000002  0.09429  1.0000
  H   H89       1.0  0.10431999999999997  0.9711400000000002  0.02671  1.0000
  H   H90       1.0  0.17186  0.011710000000000003  0.02521  1.0000
  H   H91       1.0  0.23872000000000002  0.98659  0.09195  1.0000
  H   H92       1.0  0.3163  0.87784  0.26015  1.0000
  H   H93       1.0  0.3162700000000001  0.8100700000000002  0.32315  1.0000
  H   H94       1.0  0.25066  0.7671000000000002  0.31767  1.0000
  H   H95       1.0  0.1845  0.79203  0.24955000000000002  1.0000
  H   H96       1.0  0.15133999999999997  0.8099100000000002  0.08278  1.0000
