data_image0
_chemical_formula_structural       Mn2ClO3C2OCO2Mn2ClO3C2OCO2Mn2ClO3C2OCO2Mn2ClO3C2OCO2Mn2ClO3C2OCO2Mn2ClO3C2OCO2Mn2ClO3C2OCO2Mn2ClO3C2OCO2C8ClCClC2ClCClCH6C8ClCClC2ClCClCH6C8ClCClC2ClCClCH6C8ClCClC2ClCClCH6C8ClCClC2ClCClCH6C8ClCClC2ClCClCH6C8ClCClC2ClCClCH6C8ClCClC2ClCClCH6C8ClCClC2ClCClCH6C8ClCClC2ClCClCH6C8ClCClC2ClCClCH6C8ClCClC2ClCClCH6
_chemical_formula_sum              "Mn16 Cl56 O48 C180 H72"
_cell_length_a       45.0325
_cell_length_b       40.2115
_cell_length_c       7.2894
_cell_angle_alpha    80.4379
_cell_angle_beta     86.51879999999998
_cell_angle_gamma    89.9899

_symmetry_space_group_name_H-M    'P 1'
_symmetry_Int_Tables_number       1

loop_
  _symmetry_equiv_pos_as_xyz
  'x,y,z'

loop_
  _atom_site_type_symbol
  _atom_site_label
  _atom_site_symmetry_multiplicity
  _atom_site_fract_x
  _atom_site_fract_y
  _atom_site_fract_z
  _atom_site_occupancy
  Mn  Mn1       1.0  0.40156  0.58858  0.2931499999999999  1.0000
  Mn  Mn2       1.0  0.38145  0.57951  0.5440199999999998  1.0000
  Cl  Cl1       1.0  0.4304200000000001  0.5965  0.019049999999999786  1.0000
  O   O1        1.0  0.37900000000000006  0.53091  0.5565699999999998  1.0000
  O   O2        1.0  0.41866999999999993  0.54524  0.36178  1.0000
  O   O3        1.0  0.43002000000000007  0.61057  0.40866  1.0000
  C   C1        1.0  0.40312000000000003  0.52238  0.46522  1.0000
  C   C2        1.0  0.41652  0.63307  0.4842999999999999  1.0000
  O   O4        1.0  0.3879  0.62806  0.53231  1.0000
  C   C3        1.0  0.34501  0.5737  0.2619099999999999  1.0000
  O   O5        1.0  0.34339  0.58413  0.4239999999999999  1.0000
  O   O6        1.0  0.37035  0.56985  0.18189999999999995  1.0000
  Mn  Mn3       1.0  0.88635  0.9265299999999999  0.8330999999999997  1.0000
  Mn  Mn4       1.0  0.88502  0.90561  0.09717999999999997  1.0000
  Cl  Cl2       1.0  0.8849400000000001  0.9444  0.51986  1.0000
  O   O7        1.0  0.91486  0.87208  0.06439999999999979  1.0000
  O   O8        1.0  0.89482  0.8814900000000001  0.7898199999999997  1.0000
  O   O9        1.0  0.92741  0.93651  0.82786  1.0000
  C   C4        1.0  0.91082  0.8630599999999999  0.9033399999999998  1.0000
  C   C5        1.0  0.93567  0.94309  0.98134  1.0000
  O   O10       1.0  0.9166899999999999  0.93726  0.12852  1.0000
  C   C6        1.0  0.8340600000000001  0.9319500000000001  0.9958499999999998  1.0000
  O   O11       1.0  0.8525100000000001  0.9369  0.12257999999999968  1.0000
  O   O12       1.0  0.84475  0.91989  0.8555999999999998  1.0000
  Mn  Mn5       1.0  0.37523  0.92248  0.19564  1.0000
  Mn  Mn6       1.0  0.3701  0.9088499999999999  0.9505699999999999  1.0000
  Cl  Cl3       1.0  0.37508  0.93544  0.4878599999999999  1.0000
  O   O13       1.0  0.4019400000000001  0.9416700000000001  0.8510699999999998  1.0000
  O   O14       1.0  0.38649  0.96699  0.08915999999999998  1.0000
  O   O15       1.0  0.36746000000000006  0.8763  0.29228  1.0000
  C   C7        1.0  0.39981  0.9689000000000001  0.9302699999999999  1.0000
  C   C8        1.0  0.38451  0.85831  0.20419999999999994  1.0000
  O   O16       1.0  0.39654  0.87224  0.04025  1.0000
  C   C9        1.0  0.3254  0.94819  0.02215  1.0000
  O   O17       1.0  0.34117  0.9429  0.8729600000000001  1.0000
  O   O18       1.0  0.3342  0.9354099999999999  0.18144999999999994  1.0000
  Mn  Mn7       1.0  0.12744  0.40304  0.4696999999999999  1.0000
  Mn  Mn8       1.0  0.13037  0.41936999999999997  0.18124  1.0000
  Cl  Cl4       1.0  0.12481  0.38810999999999996  0.7809999999999999  1.0000
  O   O19       1.0  0.10558  0.38142  0.14656  1.0000
  O   O20       1.0  0.09688  0.37052  0.4539399999999999  1.0000
  O   O21       1.0  0.09801  0.43706000000000006  0.47888999999999987  1.0000
  C   C10       1.0  0.09149000000000002  0.36446  0.2945399999999999  1.0000
  C   C11       1.0  0.08569999999999998  0.452  0.33523  1.0000
  O   O22       1.0  0.09537  0.4468500000000001  0.16947999999999994  1.0000
  C   C12       1.0  0.1668  0.4570100000000001  0.36135  1.0000
  O   O23       1.0  0.15488  0.45878  0.2003  1.0000
  O   O24       1.0  0.158  0.43437  0.4963799999999999  1.0000
  Mn  Mn9       1.0  0.11996  0.11592999999999999  0.9178499999999998  1.0000
  Mn  Mn10      1.0  0.13404  0.0826  0.4181499999999999  1.0000
  Cl  Cl5       1.0  0.0774  0.11444000000000001  0.7624899999999998  1.0000
  O   O25       1.0  0.13011  0.13201  0.3382599999999999  1.0000
  O   O26       1.0  0.09652  0.12693  0.12618  1.0000
  O   O27       1.0  0.11588  0.06811999999999999  0.9981  1.0000
  C   C13       1.0  0.10797  0.14383  0.23637999999999998  1.0000
  C   C14       1.0  0.10519  0.05244  0.15379999999999994  1.0000
  O   O28       1.0  0.09949  0.06761  0.2982399999999999  1.0000
  C   C15       1.0  0.17102  0.09199  0.07974  1.0000
  O   O29       1.0  0.16548  0.0713  0.23730999999999997  1.0000
  O   O30       1.0  0.15555  0.11801  0.041919999999999985  1.0000
  Mn  Mn11      1.0  0.62421  0.06902  0.87884  1.0000
  Mn  Mn12      1.0  0.61419  0.06843  0.14662  1.0000
  Cl  Cl6       1.0  0.64156  0.07269  0.57394  1.0000
  O   O31       1.0  0.60994  0.11679  0.1291599999999997  1.0000
  O   O32       1.0  0.64087  0.11247999999999998  0.8862199999999998  1.0000
  O   O33       1.0  0.58794  0.08866000000000002  0.8071399999999997  1.0000
  C   C16       1.0  0.62931  0.13084  0.9970599999999997  1.0000
  C   C17       1.0  0.56654  0.07728000000000002  0.9216999999999997  1.0000
  O   O34       1.0  0.57242  0.06312  0.09185999999999998  1.0000
  C   C18       1.0  0.64813  0.018440000000000005  0.07091000000000003  1.0000
  O   O35       1.0  0.62199  0.020579999999999998  0.1598999999999999  1.0000
  O   O36       1.0  0.6581  0.04445  0.9608499999999998  1.0000
  Mn  Mn13      1.0  0.8670900000000001  0.58799  0.69677  1.0000
  Mn  Mn14      1.0  0.86662  0.60023  0.4241999999999999  1.0000
  Cl  Cl7       1.0  0.8648  0.57937  0.014919999999999998  1.0000
  O   O37       1.0  0.88698  0.64334  0.4095199999999999  1.0000
  O   O38       1.0  0.8649200000000001  0.63564  0.6925599999999997  1.0000
  O   O39       1.0  0.90876  0.59092  0.6883299999999998  1.0000
  C   C19       1.0  0.87814  0.65573  0.559  1.0000
  C   C20       1.0  0.9217700000000001  0.58235  0.54473  1.0000
  O   O40       1.0  0.9055200000000001  0.57719  0.4069299999999999  1.0000
  C   C21       1.0  0.81994  0.56413  0.57156  1.0000
  O   O41       1.0  0.84161  0.55975  0.4475699999999999  1.0000
  O   O42       1.0  0.8255300000000001  0.58213  0.6931999999999998  1.0000
  Mn  Mn15      1.0  0.61617  0.41136000000000006  0.8770999999999998  1.0000
  Mn  Mn16      1.0  0.62281  0.3968300000000001  0.3910899999999999  1.0000
  Cl  Cl8       1.0  0.58017  0.38978  0.10054999999999997  1.0000
  O   O43       1.0  0.6521  0.37507  0.56268  1.0000
  O   O44       1.0  0.61866  0.3676  0.8083099999999998  1.0000
  O   O45       1.0  0.58481  0.42686999999999997  0.7159299999999998  1.0000
  C   C22       1.0  0.6419  0.35851  0.72461  1.0000
  C   C23       1.0  0.57241  0.41040999999999994  0.6066  1.0000
  O   O46       1.0  0.58567  0.38496  0.5450399999999999  1.0000
  C   C24       1.0  0.64342  0.45131  0.55938  1.0000
  O   O47       1.0  0.62655  0.44407  0.43006  1.0000
  O   O48       1.0  0.6479  0.43005  0.70273  1.0000
  C   C25       1.0  0.4319700000000001  0.6649  0.49311999999999995  1.0000
  C   C26       1.0  0.46316  0.66637  0.4711799999999999  1.0000
  C   C27       1.0  0.4782100000000001  0.6974  0.4351199999999999  1.0000
  C   C28       1.0  0.51136  0.6989  0.39723  1.0000
  C   C29       1.0  0.46189  0.72728  0.42143999999999987  1.0000
  C   C30       1.0  0.4307  0.72625  0.4466299999999999  1.0000
  C   C31       1.0  0.41395000000000004  0.75815  0.4052699999999999  1.0000
  C   C32       1.0  0.41776  0.7840299999999999  0.51062  1.0000
  Cl  Cl9       1.0  0.4374100000000001  0.7762299999999999  0.7156199999999998  1.0000
  C   C33       1.0  0.40684  0.8165600000000001  0.4495699999999999  1.0000
  Cl  Cl10      1.0  0.41473  0.84961  0.5719299999999998  1.0000
  C   C34       1.0  0.39185  0.82325  0.28386  1.0000
  C   C35       1.0  0.38667  0.79696  0.18364  1.0000
  Cl  Cl11      1.0  0.36727  0.80489  0.9774599999999998  1.0000
  C   C36       1.0  0.39758000000000004  0.76447  0.24445999999999996  1.0000
  Cl  Cl12      1.0  0.39267  0.73256  0.10844999999999971  1.0000
  C   C37       1.0  0.41583999999999993  0.69496  0.48751999999999995  1.0000
  H   H1        1.0  0.47569  0.64331  0.4721599999999999  1.0000
  H   H2        1.0  0.52163  0.71347  0.4937299999999999  1.0000
  H   H3        1.0  0.52113  0.67325  0.4156799999999999  1.0000
  H   H4        1.0  0.51683  0.71136  0.25165999999999994  1.0000
  H   H5        1.0  0.47341000000000005  0.75135  0.3843199999999999  1.0000
  H   H6        1.0  0.39174  0.69419  0.49891999999999986  1.0000
  C   C38       1.0  0.9253200000000001  0.8326500000000001  0.85515  1.0000
  C   C39       1.0  0.9546500000000001  0.8258200000000001  0.9034499999999998  1.0000
  C   C40       1.0  0.96867  0.79636  0.8665699999999997  1.0000
  C   C41       1.0  0.0003899999999998922  0.7894599999999999  0.9117399999999998  1.0000
  C   C42       1.0  0.95279  0.7729800000000001  0.78769  1.0000
  C   C43       1.0  0.92335  0.7793199999999999  0.7393199999999998  1.0000
  C   C44       1.0  0.90674  0.75269  0.66863  1.0000
  C   C45       1.0  0.91712  0.74176  0.50327  1.0000
  Cl  Cl13      1.0  0.94413  0.76625  0.3526599999999999  1.0000
  C   C46       1.0  0.90669  0.71121  0.45911  1.0000
  Cl  Cl14      1.0  0.92243  0.69813  0.25489999999999996  1.0000
  C   C47       1.0  0.8848900000000001  0.69149  0.57928  1.0000
  C   C48       1.0  0.87143  0.70553  0.7300799999999997  1.0000
  Cl  Cl15      1.0  0.83968  0.68664  0.8622699999999998  1.0000
  C   C49       1.0  0.88295  0.73527  0.77759  1.0000
  Cl  Cl16      1.0  0.86874  0.7493  0.9827599999999999  1.0000
  C   C50       1.0  0.90994  0.80976  0.76842  1.0000
  H   H7        1.0  0.96662  0.8436  0.9691499999999997  1.0000
  H   H8        1.0  0.01384999999999992  0.7867300000000002  0.7827299999999998  1.0000
  H   H9        1.0  0.010159999999999949  0.8103200000000002  0.9716099999999998  1.0000
  H   H10       1.0  0.0015899999999999803  0.7657800000000001  0.013609999999999676  1.0000
  H   H11       1.0  0.96334  0.74967  0.7642599999999998  1.0000
  H   H12       1.0  0.88721  0.81483  0.73209  1.0000
  C   C51       1.0  0.07049  0.33801  0.26473999999999986  1.0000
  C   C52       1.0  0.04671  0.34756  0.15133  1.0000
  C   C53       1.0  0.03411  0.32442  0.05268999999999999  1.0000
  C   C54       1.0  0.010070000000000004  0.33454  0.9216199999999998  1.0000
  C   C55       1.0  0.045040000000000004  0.29167  0.07057  1.0000
  C   C56       1.0  0.06727  0.28105  0.19291999999999998  1.0000
  C   C57       1.0  0.07814  0.24596000000000004  0.20996  1.0000
  C   C58       1.0  0.05812  0.2187  0.26824  1.0000
  Cl  Cl17      1.0  0.02059  0.22610000000000002  0.3362599999999999  1.0000
  C   C59       1.0  0.0679  0.18538  0.27662999999999993  1.0000
  Cl  Cl18      1.0  0.04218  0.15166  0.34359  1.0000
  C   C60       1.0  0.09808  0.17885  0.23455999999999996  1.0000
  C   C61       1.0  0.11827  0.20596000000000003  0.17910999999999996  1.0000
  Cl  Cl19      1.0  0.15608  0.19819  0.12080999999999997  1.0000
  C   C62       1.0  0.10822  0.23937  0.16223  1.0000
  Cl  Cl20      1.0  0.13302  0.27293  0.06932  1.0000
  C   C63       1.0  0.07965  0.3042799999999999  0.2923  1.0000
  H   H13       1.0  0.0394  0.3735  0.13015  1.0000
  H   H14       1.0  0.99  0.31852  0.9675299999999999  1.0000
  H   H15       1.0  0.003920000000000002  0.36138  0.9162199999999998  1.0000
  H   H16       1.0  0.017770000000000005  0.33068  0.7792499999999998  1.0000
  H   H17       1.0  0.03635  0.27434  0.9870699999999999  1.0000
  H   H18       1.0  0.09808  0.29669  0.3782  1.0000
  C   C64       1.0  0.65909  0.33099  0.8217799999999997  1.0000
  C   C65       1.0  0.68352  0.33841  0.9184099999999997  1.0000
  C   C66       1.0  0.69815  0.31246  0.029699999999999838  1.0000
  C   C67       1.0  0.7236000000000001  0.32018  0.13955999999999966  1.0000
  C   C68       1.0  0.68843  0.27901  0.04129999999999966  1.0000
  C   C69       1.0  0.66424  0.27143  0.9423499999999999  1.0000
  C   C70       1.0  0.6547  0.23595  0.9511399999999998  1.0000
  C   C71       1.0  0.67358  0.2135  0.8732499999999997  1.0000
  Cl  Cl21      1.0  0.70731  0.22851000000000002  0.7496199999999997  1.0000
  C   C72       1.0  0.66558  0.1793  0.8893999999999997  1.0000
  Cl  Cl22      1.0  0.69181  0.15205  0.80229  1.0000
  C   C73       1.0  0.63774  0.16733  0.9778799999999997  1.0000
  C   C74       1.0  0.61821  0.19060000000000002  0.04833999999999982  1.0000
  Cl  Cl23      1.0  0.58195  0.17857000000000003  0.1439299999999999  1.0000
  C   C75       1.0  0.62695  0.22453000000000006  0.0376099999999997  1.0000
  Cl  Cl24      1.0  0.60315  0.25274  0.13648999999999997  1.0000
  C   C76       1.0  0.64951  0.29758  0.8334799999999998  1.0000
  H   H19       1.0  0.69054  0.36441  0.9107199999999998  1.0000
  H   H20       1.0  0.74377  0.30678  0.0970399999999998  1.0000
  H   H21       1.0  0.72864  0.34765  0.11719999999999996  1.0000
  H   H22       1.0  0.7178900000000001  0.31161  0.29005  1.0000
  H   H23       1.0  0.69964  0.25888  0.12742999999999993  1.0000
  H   H24       1.0  0.63052  0.2919  0.7591199999999998  1.0000
  C   C77       1.0  0.31776  0.5672  0.17321999999999996  1.0000
  C   C78       1.0  0.31411  0.58192  0.9882199999999999  1.0000
  C   C79       1.0  0.28764  0.57689  0.9047  1.0000
  C   C80       1.0  0.2828300000000001  0.59374  0.7098799999999997  1.0000
  C   C81       1.0  0.26513  0.55631  0.006139999999999998  1.0000
  C   C82       1.0  0.26862  0.54143  0.19143  1.0000
  C   C83       1.0  0.24498  0.51839  0.28993  1.0000
  C   C84       1.0  0.21843  0.53166  0.36037  1.0000
  Cl  Cl25      1.0  0.21722  0.57436  0.39007999999999987  1.0000
  C   C85       1.0  0.19264000000000003  0.51109  0.39895  1.0000
  Cl  Cl26      1.0  0.1589  0.52791  0.47731999999999997  1.0000
  C   C86       1.0  0.19369  0.47723  0.37119  1.0000
  C   C87       1.0  0.22106  0.46339  0.3201099999999999  1.0000
  Cl  Cl27      1.0  0.22273  0.4204399999999999  0.2936999999999999  1.0000
  C   C88       1.0  0.24656  0.48389000000000004  0.27914999999999995  1.0000
  Cl  Cl28      1.0  0.27989  0.46659  0.19720999999999994  1.0000
  C   C89       1.0  0.29496  0.54692  0.2748399999999999  1.0000
  H   H25       1.0  0.33158  0.59798  0.9113299999999999  1.0000
  H   H26       1.0  0.2621  0.60872  0.7097300000000001  1.0000
  H   H27       1.0  0.30159  0.61099  0.65136  1.0000
  H   H28       1.0  0.28055  0.57437  0.61976  1.0000
  H   H29       1.0  0.24490999999999996  0.55184  0.9401199999999998  1.0000
  H   H30       1.0  0.29796  0.53493  0.41659  1.0000
  C   C90       1.0  0.66305  0.98577  0.08228999999999975  1.0000
  C   C91       1.0  0.64556  0.9562800000000001  0.10591  1.0000
  C   C92       1.0  0.65872  0.92493  0.10047999999999997  1.0000
  C   C93       1.0  0.63989  0.89368  0.11565999999999999  1.0000
  C   C94       1.0  0.6897  0.9228900000000001  0.07791  1.0000
  C   C95       1.0  0.7074899999999998  0.9520799999999999  0.06003000000000002  1.0000
  C   C96       1.0  0.74016  0.94921  0.04688999999999987  1.0000
  C   C97       1.0  0.75491  0.93245  0.20031  1.0000
  Cl  Cl29      1.0  0.7346  0.91717  0.4127599999999999  1.0000
  C   C98       1.0  0.78575  0.92778  0.18545  1.0000
  Cl  Cl30      1.0  0.8033900000000002  0.90505  0.37712999999999997  1.0000
  C   C99       1.0  0.80218  0.93965  0.016429999999999723  1.0000
  C   C100      1.0  0.7875300000000001  0.9575300000000001  0.8651199999999998  1.0000
  Cl  Cl31      1.0  0.80792  0.97487  0.65648  1.0000
  C   C101      1.0  0.7566700000000001  0.96227  0.8804999999999997  1.0000
  Cl  Cl32      1.0  0.73845  0.98372  0.6879399999999998  1.0000
  C   C102      1.0  0.69405  0.9836200000000002  0.05811999999999995  1.0000
  H   H31       1.0  0.62154  0.95793  0.12200999999999997  1.0000
  H   H32       1.0  0.64597  0.87512  0.23732999999999996  1.0000
  H   H33       1.0  0.61583  0.8993400000000001  0.13332  1.0000
  H   H34       1.0  0.64362  0.88244  0.9873899999999999  1.0000
  H   H35       1.0  0.70004  0.8986299999999999  0.07484999999999997  1.0000
  H   H36       1.0  0.70774  0.00627  0.03943999999999992  1.0000
  C   C103      1.0  0.19401  0.08372  0.94132  1.0000
  C   C104      1.0  0.19669999999999999  0.10284000000000001  0.7612699999999999  1.0000
  C   C105      1.0  0.21809  0.09469000000000001  0.62842  1.0000
  C   C106      1.0  0.22052  0.11519  0.4363899999999999  1.0000
  C   C107      1.0  0.2374  0.06779  0.6776899999999998  1.0000
  C   C108      1.0  0.23521  0.04879000000000001  0.85758  1.0000
  C   C109      1.0  0.25653  0.021280000000000004  0.9114699999999999  1.0000
  C   C110      1.0  0.2581  0.99336  0.8178199999999998  1.0000
  Cl  Cl33      1.0  0.23287  0.9891600000000002  0.6461599999999998  1.0000
  C   C111      1.0  0.27976  0.96853  0.8603099999999998  1.0000
  Cl  Cl34      1.0  0.28195  0.93447  0.73475  1.0000
  C   C112      1.0  0.29952  0.97083  0.0007899999999999998  1.0000
  C   C113      1.0  0.29701  0.99809  0.10052999999999997  1.0000
  Cl  Cl35      1.0  0.32197  0.002609999999999998  0.27311  1.0000
  C   C114      1.0  0.27592  0.02339  0.053949999999999984  1.0000
  Cl  Cl36      1.0  0.2757  0.05926  0.16506  1.0000
  C   C115      1.0  0.21321  0.05658  0.9877699999999999  1.0000
  H   H37       1.0  0.182  0.12385  0.7228699999999998  1.0000
  H   H38       1.0  0.19806  0.1204  0.3841999999999999  1.0000
  H   H39       1.0  0.23194  0.13953  0.4396599999999999  1.0000
  H   H40       1.0  0.23328  0.10167000000000001  0.33713  1.0000
  H   H41       1.0  0.25444  0.06187000000000001  0.57705  1.0000
  H   H42       1.0  0.21153  0.04171  0.12616  1.0000
  C   C116      1.0  0.65547  0.48569999999999997  0.5435899999999999  1.0000
  C   C117      1.0  0.63632  0.51325  0.5094499999999998  1.0000
  C   C118      1.0  0.64711  0.54621  0.50051  1.0000
  C   C119      1.0  0.62676  0.57588  0.4661  1.0000
  C   C120      1.0  0.67729  0.55156  0.52189  1.0000
  C   C121      1.0  0.69703  0.52434  0.54922  1.0000
  C   C122      1.0  0.7294100000000001  0.53118  0.5515599999999998  1.0000
  C   C123      1.0  0.74457  0.55001  0.39308  1.0000
  Cl  Cl37      1.0  0.72627  0.56152  0.18452  1.0000
  C   C124      1.0  0.77435  0.55994  0.39917999999999987  1.0000
  Cl  Cl38      1.0  0.79161  0.58667  0.20505999999999994  1.0000
  C   C125      1.0  0.7895600000000002  0.55064  0.5626  1.0000
  C   C126      1.0  0.7747900000000001  0.53093  0.7196099999999999  1.0000
  Cl  Cl39      1.0  0.79375  0.5185  0.9245199999999998  1.0000
  C   C127      1.0  0.74485  0.52102  0.7137399999999998  1.0000
  Cl  Cl40      1.0  0.72647  0.49689999999999995  0.9127999999999997  1.0000
  C   C128      1.0  0.68582  0.49128  0.5639899999999998  1.0000
  H   H43       1.0  0.61293  0.50892  0.49359999999999987  1.0000
  H   H44       1.0  0.63456  0.59273  0.33584  1.0000
  H   H45       1.0  0.60351  0.56788  0.45218999999999987  1.0000
  H   H46       1.0  0.62697  0.59017  0.58362  1.0000
  H   H47       1.0  0.68569  0.57709  0.51316  1.0000
  H   H48       1.0  0.70083  0.4701  0.58578  1.0000
  C   C129      1.0  0.41133  0.48696  0.4724099999999999  1.0000
  C   C130      1.0  0.38999  0.46332000000000007  0.44429999999999986  1.0000
  C   C131      1.0  0.39852  0.43048  0.4248899999999999  1.0000
  C   C132      1.0  0.37600000000000006  0.40547  0.38605  1.0000
  C   C133      1.0  0.42844  0.4211599999999999  0.4390199999999999  1.0000
  C   C134      1.0  0.44988000000000006  0.44441  0.47369999999999995  1.0000
  C   C135      1.0  0.48127  0.43421999999999994  0.49912999999999996  1.0000
  C   C136      1.0  0.48819  0.4086  0.6469199999999998  1.0000
  Cl  Cl41      1.0  0.45970000000000005  0.38874000000000003  0.8052599999999998  1.0000
  C   C137      1.0  0.51794  0.39973999999999993  0.67528  1.0000
  Cl  Cl42      1.0  0.526  0.36582  0.8513999999999998  1.0000
  C   C138      1.0  0.5412200000000001  0.41776  0.56412  1.0000
  C   C139      1.0  0.53447  0.4431899999999999  0.41585  1.0000
  Cl  Cl43      1.0  0.56346  0.46555  0.2729599999999999  1.0000
  C   C140      1.0  0.50464  0.45089  0.3808099999999999  1.0000
  Cl  Cl44      1.0  0.4966  0.4810900000000001  0.18542  1.0000
  C   C141      1.0  0.44112000000000007  0.47742000000000007  0.48815999999999987  1.0000
  H   H49       1.0  0.36701  0.47089  0.4299399999999999  1.0000
  H   H50       1.0  0.37547  0.38300999999999996  0.4974299999999999  1.0000
  H   H51       1.0  0.35332  0.41637  0.3803599999999999  1.0000
  H   H52       1.0  0.38214  0.39759  0.25025  1.0000
  H   H53       1.0  0.43507000000000007  0.39580999999999994  0.4234999999999999  1.0000
  H   H54       1.0  0.45751000000000003  0.49568  0.51253  1.0000
  C   C142      1.0  0.09495  0.01772  0.16262999999999994  1.0000
  C   C143      1.0  0.1143  0.99076  0.20903  1.0000
  C   C144      1.0  0.10467  0.95757  0.21011999999999995  1.0000
  C   C145      1.0  0.12555  0.9285599999999999  0.25144  1.0000
  C   C146      1.0  0.07538  0.9514899999999998  0.16763999999999996  1.0000
  C   C147      1.0  0.05594  0.97846  0.11964999999999998  1.0000
  C   C148      1.0  0.0251  0.97202  0.07327  1.0000
  C   C149      1.0  0.019889999999999967  0.95571  0.9212599999999997  1.0000
  Cl  Cl45      1.0  0.050040000000000015  0.9468900000000001  0.7700199999999998  1.0000
  C   C150      1.0  0.99077  0.94678  0.88749  1.0000
  Cl  Cl46      1.0  0.9860100000000002  0.92233  0.7103299999999999  1.0000
  C   C151      1.0  0.96622  0.9558899999999999  0.9991299999999999  1.0000
  C   C152      1.0  0.97154  0.97522  0.13978  1.0000
  Cl  Cl47      1.0  0.94184  0.99273  0.26088999999999996  1.0000
  C   C153      1.0  0.0007399999999999629  0.98195  0.18132  1.0000
  Cl  Cl48      1.0  0.00662000000000007  0.0015400000000000968  0.37656  1.0000
  C   C154      1.0  0.06602  0.01157  0.11594999999999997  1.0000
  H   H55       1.0  0.13686  0.99575  0.24197999999999995  1.0000
  H   H56       1.0  0.12795  0.91522  0.13000999999999996  1.0000
  H   H57       1.0  0.14797  0.93729  0.27977999999999986  1.0000
  H   H58       1.0  0.11661  0.9107099999999999  0.37491  1.0000
  H   H59       1.0  0.06781  0.92583  0.16987999999999995  1.0000
  H   H60       1.0  0.05135000000000001  0.03258  0.07600999999999997  1.0000
  C   C155      1.0  0.41056  0.0014899999999999866  0.82762  1.0000
  C   C156      1.0  0.39364  0.01835000000000009  0.6866499999999998  1.0000
  C   C157      1.0  0.40375  0.04908000000000001  0.58115  1.0000
  C   C158      1.0  0.3856899999999999  0.06712999999999991  0.4300099999999999  1.0000
  C   C159      1.0  0.43113000000000007  0.06252999999999999  0.61601  1.0000
  C   C160      1.0  0.44793  0.04593000000000003  0.7587399999999997  1.0000
  C   C161      1.0  0.47775  0.05868000000000001  0.7867299999999998  1.0000
  C   C162      1.0  0.50179  0.053620000000000015  0.6626099999999998  1.0000
  Cl  Cl49      1.0  0.49595  0.033560000000000034  0.4693999999999999  1.0000
  C   C163      1.0  0.53084  0.062280000000000016  0.6989399999999998  1.0000
  Cl  Cl50      1.0  0.56073  0.0529900000000001  0.54709  1.0000
  C   C164      1.0  0.53596  0.07583000000000001  0.8610799999999997  1.0000
  C   C165      1.0  0.51157  0.08268000000000002  0.9792599999999999  1.0000
  Cl  Cl51      1.0  0.51724  0.10331  0.17024  1.0000
  C   C166      1.0  0.48256  0.07393  0.94258  1.0000
  Cl  Cl52      1.0  0.45223  0.08184  0.09325999999999998  1.0000
  C   C167      1.0  0.43737  0.015509999999999913  0.8660399999999999  1.0000
  H   H61       1.0  0.37265000000000004  0.007560000000000015  0.6589399999999997  1.0000
  H   H62       1.0  0.39716  0.06604999999999994  0.29267  1.0000
  H   H63       1.0  0.36329  0.05545  0.4331399999999999  1.0000
  H   H64       1.0  0.38289000000000006  0.09391000000000001  0.4470499999999999  1.0000
  H   H65       1.0  0.43951  0.0858  0.5317499999999997  1.0000
  H   H66       1.0  0.45043  0.002439999999999998  0.9751699999999999  1.0000
  C   C168      1.0  0.9545000000000001  0.5805  0.5330999999999998  1.0000
  C   C169      1.0  0.9705000000000001  0.6048800000000001  0.60469  1.0000
  C   C170      1.0  0.0015300000000000318  0.60422  0.6030599999999998  1.0000
  C   C171      1.0  0.018569999999999975  0.631  0.67356  1.0000
  C   C172      1.0  0.01681  0.57808  0.53528  1.0000
  C   C173      1.0  0.0011799999999999586  0.55317  0.46582999999999997  1.0000
  C   C174      1.0  0.01792  0.52418  0.41590999999999995  1.0000
  C   C175      1.0  0.03366  0.52682  0.24213999999999994  1.0000
  Cl  Cl53      1.0  0.027229999999999997  0.56162  0.06728999999999999  1.0000
  C   C176      1.0  0.05516999999999999  0.50277  0.21062999999999996  1.0000
  Cl  Cl54      1.0  0.07607  0.50915  0.9935999999999999  1.0000
  C   C177      1.0  0.06063  0.47529  0.35445999999999994  1.0000
  C   C178      1.0  0.042290000000000015  0.47102  0.52146  1.0000
  Cl  Cl55      1.0  0.04433000000000001  0.43445  0.6937699999999999  1.0000
  C   C179      1.0  0.02171  0.49581000000000003  0.55316  1.0000
  Cl  Cl56      1.0  0.0018100000000000021  0.49245  0.7718999999999998  1.0000
  C   C180      1.0  0.9700600000000001  0.55477  0.4599699999999999  1.0000
  H   H67       1.0  0.95856  0.62474  0.6611699999999998  1.0000
  H   H68       1.0  0.032810000000000006  0.64527  0.55755  1.0000
  H   H69       1.0  0.00344000000000011  0.64895  0.7321099999999998  1.0000
  H   H70       1.0  0.03296  0.61928  0.7838799999999998  1.0000
  H   H71       1.0  0.04083000000000001  0.57686  0.53969  1.0000
  H   H72       1.0  0.95813  0.53541  0.40655  1.0000
