data_image0
_chemical_formula_structural       OSmOCO2C2O3SmOCO2C2O3SmOCO2C2O3SmOCO2C2O3SmOCO2C2O3SmOCO2C2O3SmOCO2C2O3SmOCO2C2O2C12H10C12H10C12H10C12H10C12H10C12H10C12H10C12H10C12H10C12H10C12H10C12H10
_chemical_formula_sum              "O48 Sm8 C168 H120"
_cell_length_a       22.3737
_cell_length_b       24.4434
_cell_length_c       26.7859
_cell_angle_alpha    92.8739
_cell_angle_beta     95.9483
_cell_angle_gamma    88.6083

_symmetry_space_group_name_H-M    'P 1'
_symmetry_Int_Tables_number       1

loop_
  _symmetry_equiv_pos_as_xyz
  'x,y,z'

loop_
  _atom_site_type_symbol
  _atom_site_label
  _atom_site_symmetry_multiplicity
  _atom_site_fract_x
  _atom_site_fract_y
  _atom_site_fract_z
  _atom_site_occupancy
  O   O1        1.0  0.17849  0.9633000000000002  0.98374  1.0000
  Sm  Sm1       1.0  0.25279000000000007  0.94898  0.93252  1.0000
  O   O2        1.0  0.18264  0.8870399999999999  0.9444599999999997  1.0000
  C   C1        1.0  0.18135000000000004  0.00644  0.86553  1.0000
  O   O3        1.0  0.19481000000000004  0.022999999999999913  0.91057  1.0000
  O   O4        1.0  0.20281000000000002  0.9594800000000001  0.85562  1.0000
  C   C2        1.0  0.33503  0.005479999999999994  0.99129  1.0000
  C   C3        1.0  0.15698000000000004  0.9159900000000002  0.9765199999999999  1.0000
  O   O5        1.0  0.32066000000000006  0.015500000000000002  0.9454299999999999  1.0000
  O   O6        1.0  0.30632  0.9663800000000001  0.006839999999999999  1.0000
  O   O7        1.0  0.09393000000000003  0.7381  0.19667  1.0000
  Sm  Sm2       1.0  0.0993  0.7179000000000001  0.27765  1.0000
  O   O8        1.0  0.11925  0.80096  0.25306  1.0000
  C   C4        1.0  0.050519999999999905  0.75463  0.36158  1.0000
  O   O9        1.0  0.027870000000000006  0.76485  0.31776  1.0000
  O   O10       1.0  0.09826000000000003  0.7260000000000002  0.36169999999999997  1.0000
  C   C5        1.0  0.010750000000000261  0.64357  0.26473  1.0000
  C   C6        1.0  0.11217000000000002  0.78698  0.20629999999999998  1.0000
  O   O11       1.0  0.0021800000000000708  0.69371  0.25628  1.0000
  O   O12       1.0  0.06451  0.63225  0.2803  1.0000
  O   O13       1.0  0.8063900000000003  0.07697  0.45876  1.0000
  Sm  Sm3       1.0  0.7490300000000001  0.005640000000000313  0.43288999999999994  1.0000
  O   O14       1.0  0.79902  0.011479999999999938  0.50908  1.0000
  C   C7        1.0  0.6453900000000001  0.9717400000000003  0.4567499999999999  1.0000
  O   O15       1.0  0.66287  0.021010000000000195  0.46608999999999995  1.0000
  O   O16       1.0  0.68164  0.9399600000000002  0.43437  1.0000
  C   C8        1.0  0.7827  0.9861000000000002  0.34253  1.0000
  C   C9        1.0  0.8219500000000002  0.05758  0.50183  1.0000
  O   O17       1.0  0.7306000000000002  0.0062400000000000224  0.34948  1.0000
  O   O18       1.0  0.8171  0.9764600000000002  0.3824399999999999  1.0000
  O   O19       1.0  0.98638  0.7174900000000001  0.64224  1.0000
  Sm  Sm4       1.0  0.99004  0.73575  0.7249799999999997  1.0000
  O   O20       1.0  0.02640000000000003  0.7926000000000002  0.67391  1.0000
  C   C10       1.0  0.93818  0.8065800000000002  0.78511  1.0000
  O   O21       1.0  0.9156  0.79446  0.74004  1.0000
  O   O22       1.0  0.98739  0.7811  0.79901  1.0000
  C   C11       1.0  0.02722000000000002  0.6381900000000001  0.75447  1.0000
  C   C12       1.0  0.014839999999999997  0.7607400000000001  0.6348499999999999  1.0000
  O   O23       1.0  0.97363  0.6564500000000001  0.7586699999999998  1.0000
  O   O24       1.0  0.06110999999999996  0.6712800000000002  0.7357199999999998  1.0000
  O   O25       1.0  0.9935100000000001  0.22464000000000006  0.27622  1.0000
  Sm  Sm5       1.0  0.9963600000000004  0.27924000000000004  0.21218  1.0000
  O   O26       1.0  0.07346000000000003  0.22471000000000002  0.23724999999999996  1.0000
  C   C13       1.0  0.0009200000000000304  0.26765  0.11431999999999999  1.0000
  O   O27       1.0  0.9831900000000001  0.22910000000000003  0.13973  1.0000
  O   O28       1.0  0.01593  0.31162  0.13988  1.0000
  C   C14       1.0  0.94784  0.3705700000000002  0.24795  1.0000
  C   C15       1.0  0.04673000000000001  0.20546  0.27247  1.0000
  O   O29       1.0  0.91997  0.33947  0.21376999999999993  1.0000
  O   O30       1.0  6.000000000000292e-05  0.35287  0.26472  1.0000
  O   O31       1.0  0.1853  0.00557  0.48489  1.0000
  Sm  Sm6       1.0  0.25854  0.015940000000000006  0.5474  1.0000
  O   O32       1.0  0.19358000000000006  0.08356  0.52668  1.0000
  C   C16       1.0  0.26242  0.028529999999999948  0.64605  1.0000
  O   O33       1.0  0.2164  0.009819999999999999  0.61864  1.0000
  O   O34       1.0  0.30672  0.0402  0.62204  1.0000
  C   C17       1.0  0.34639  0.9640400000000001  0.50466  1.0000
  C   C18       1.0  0.1651  0.05464000000000001  0.4911  1.0000
  O   O35       1.0  0.32106000000000007  0.94448  0.54051  1.0000
  O   O36       1.0  0.32643  0.01124  0.49165  1.0000
  O   O37       1.0  0.007210000000000004  0.2231  0.83088  1.0000
  Sm  Sm7       1.0  0.07035  0.24316000000000004  0.7735  1.0000
  O   O38       1.0  0.09628000000000002  0.19334  0.84167  1.0000
  C   C19       1.0  0.008720000000000058  0.16233  0.72007  1.0000
  O   O39       1.0  0.9839399999999999  0.20251999999999998  0.74173  1.0000
  O   O40       1.0  0.06533999999999998  0.1633  0.7269499999999999  1.0000
  C   C20       1.0  0.027850000000000017  0.34411  0.75794  1.0000
  C   C21       1.0  0.04570000000000003  0.19667000000000004  0.85849  1.0000
  O   O41       1.0  0.02917  0.30706000000000006  0.7229  1.0000
  O   O42       1.0  0.04836  0.3284900000000001  0.8012699999999999  1.0000
  O   O43       1.0  0.8496500000000001  0.9787100000000002  0.0256  1.0000
  Sm  Sm8       1.0  0.76868  0.023719999999999998  0.05029999999999999  1.0000
  O   O44       1.0  0.7941700000000002  0.02485  0.97185  1.0000
  C   C22       1.0  0.65039  0.01515  0.020110000000000072  1.0000
  O   O45       1.0  0.6894899999999999  0.9795400000000001  0.009260000000000046  1.0000
  O   O46       1.0  0.6724  0.05567000000000001  0.04644  1.0000
  C   C23       1.0  0.74581  0.9436100000000001  0.11054999999999998  1.0000
  C   C24       1.0  0.8401900000000004  0.99361  0.98045  1.0000
  O   O47       1.0  0.75825  0.99195  0.12661  1.0000
  O   O48       1.0  0.7448100000000002  0.93673  0.06339  1.0000
  C   C25       1.0  0.38214  0.03657  0.02411  1.0000
  C   C26       1.0  0.43316  0.99872  0.046369999999999995  1.0000
  C   C27       1.0  0.48834  0.99844  0.01821  1.0000
  C   C28       1.0  0.5426200000000001  0.02  0.03862  1.0000
  C   C29       1.0  0.5856200000000001  0.007920000000000005  0.0061500000000001  1.0000
  C   C30       1.0  0.55905  0.97967  0.96348  1.0000
  C   C31       1.0  0.5885099999999999  0.9638900000000001  0.9216199999999999  1.0000
  C   C32       1.0  0.5643700000000001  0.9356100000000002  0.8781499999999998  1.0000
  C   C33       1.0  0.5071600000000002  0.9140800000000001  0.8669  1.0000
  C   C34       1.0  0.45869000000000004  0.9153200000000001  0.89575  1.0000
  C   C35       1.0  0.45335999999999993  0.9410900000000001  0.9426  1.0000
  C   C36       1.0  0.49625  0.97241  0.97167  1.0000
  H   H1        1.0  0.40027  0.06918  0.0027  1.0000
  H   H2        1.0  0.35987  0.057300000000000004  0.05531  1.0000
  H   H3        1.0  0.4460600000000001  0.013830000000000009  0.08578999999999999  1.0000
  H   H4        1.0  0.41797000000000006  0.9560600000000001  0.04878  1.0000
  H   H5        1.0  0.5511  0.03953  0.07578  1.0000
  H   H6        1.0  0.6348  0.9757700000000001  0.9216799999999999  1.0000
  H   H7        1.0  0.5946300000000001  0.9284900000000003  0.84929  1.0000
  H   H8        1.0  0.49948  0.8925  0.83055  1.0000
  H   H9        1.0  0.41923  0.89384  0.87892  1.0000
  H   H10       1.0  0.4110700000000001  0.9353800000000002  0.95738  1.0000
  C   C37       1.0  0.9632  0.60109  0.25524  1.0000
  C   C38       1.0  0.9566000000000001  0.56932  0.30241999999999997  1.0000
  C   C39       1.0  0.92874  0.51443  0.28825  1.0000
  C   C40       1.0  0.9619500000000001  0.4664900000000001  0.28354  1.0000
  C   C41       1.0  0.9244300000000001  0.42479  0.26436  1.0000
  C   C42       1.0  0.8656  0.44559  0.2574  1.0000
  C   C43       1.0  0.81517  0.4151800000000001  0.24002  1.0000
  C   C44       1.0  0.7562700000000001  0.43464000000000014  0.23089  1.0000
  C   C45       1.0  0.7331900000000001  0.4877700000000001  0.23725999999999997  1.0000
  C   C46       1.0  0.76231  0.5356300000000002  0.2554  1.0000
  C   C47       1.0  0.82272  0.54334  0.27146  1.0000
  C   C48       1.0  0.8686600000000001  0.50391  0.27263  1.0000
  H   H11       1.0  0.91951  0.6206400000000001  0.24191  1.0000
  H   H12       1.0  0.97655  0.5724200000000002  0.22461999999999996  1.0000
  H   H13       1.0  0.0014799999999999265  0.56221  0.32331  1.0000
  H   H14       1.0  0.9293100000000002  0.5934900000000001  0.32833  1.0000
  H   H15       1.0  0.010429999999999998  0.46313  0.29034  1.0000
  H   H16       1.0  0.82122  0.3716100000000001  0.23281999999999997  1.0000
  H   H17       1.0  0.72362  0.40417  0.21661  1.0000
  H   H18       1.0  0.68524  0.49248  0.22702  1.0000
  H   H19       1.0  0.7337900000000002  0.5719900000000001  0.25735  1.0000
  H   H20       1.0  0.83436  0.58483  0.28413  1.0000
  C   C49       1.0  0.58752  0.9526800000000001  0.47251  1.0000
  C   C50       1.0  0.54068  0.94182  0.42741  1.0000
  C   C51       1.0  0.48276  0.92502  0.44581  1.0000
  C   C52       1.0  0.43798000000000026  0.96187  0.45761  1.0000
  C   C53       1.0  0.3960500000000001  0.9351400000000002  0.4814999999999999  1.0000
  C   C54       1.0  0.41292000000000006  0.87988  0.48402  1.0000
  C   C55       1.0  0.37953  0.8394900000000002  0.50264  1.0000
  C   C56       1.0  0.39544000000000007  0.7845  0.50737  1.0000
  C   C57       1.0  0.4480000000000001  0.7568  0.49626  1.0000
  C   C58       1.0  0.49759  0.7757900000000001  0.4753  1.0000
  C   C59       1.0  0.50732  0.82757  0.45889  1.0000
  C   C60       1.0  0.46978000000000003  0.87364  0.46176  1.0000
  H   H21       1.0  0.5964500000000001  0.91504  0.4939299999999999  1.0000
  H   H22       1.0  0.56951  0.9849100000000001  0.49806  1.0000
  H   H23       1.0  0.53258  0.9798800000000001  0.40639  1.0000
  H   H24       1.0  0.55696  0.9096800000000002  0.40098  1.0000
  H   H25       1.0  0.43802  0.005459999999999999  0.4522  1.0000
  H   H26       1.0  0.33606  0.85085  0.51438  1.0000
  H   H27       1.0  0.36276  0.7598400000000002  0.52273  1.0000
  H   H28       1.0  0.45048  0.71391  0.50483  1.0000
  H   H29       1.0  0.5331800000000001  0.7457100000000002  0.47034  1.0000
  H   H30       1.0  0.54913  0.8316600000000001  0.4425899999999999  1.0000
  C   C61       1.0  0.004769999999999935  0.40114  0.7477  1.0000
  C   C62       1.0  0.009309999999999936  0.44094  0.79457  1.0000
  C   C63       1.0  0.03811000000000002  0.4937100000000001  0.78452  1.0000
  C   C64       1.0  0.00720000000000009  0.54266  0.77761  1.0000
  C   C65       1.0  0.047  0.58233  0.76823  1.0000
  C   C66       1.0  0.10498000000000002  0.55899  0.77009  1.0000
  C   C67       1.0  0.15745999999999996  0.5866600000000001  0.7644  1.0000
  C   C68       1.0  0.21543  0.56461  0.7649799999999999  1.0000
  C   C69       1.0  0.23574  0.51094  0.77211  1.0000
  C   C70       1.0  0.20384  0.46483000000000013  0.78114  1.0000
  C   C71       1.0  0.14274000000000006  0.4600400000000001  0.78489  1.0000
  C   C72       1.0  0.09877  0.5013  0.78022  1.0000
  H   H31       1.0  0.030129999999999994  0.41657  0.71786  1.0000
  H   H32       1.0  0.9569800000000003  0.39872000000000013  0.73169  1.0000
  H   H33       1.0  0.96338  0.4496000000000001  0.8057099999999999  1.0000
  H   H34       1.0  0.03577  0.42364  0.82753  1.0000
  H   H35       1.0  0.95909  0.54849  0.77777  1.0000
  H   H36       1.0  0.15447999999999998  0.6301100000000001  0.75922  1.0000
  H   H37       1.0  0.24989  0.59337  0.75917  1.0000
  H   H38       1.0  0.28361  0.5041299999999999  0.77086  1.0000
  H   H39       1.0  0.23043  0.42744000000000004  0.78592  1.0000
  H   H40       1.0  0.12874  0.41939  0.79217  1.0000
  C   C73       1.0  0.10876000000000001  0.8949600000000002  0.0052  1.0000
  C   C74       1.0  0.12914000000000003  0.84103  0.03044  1.0000
  C   C75       1.0  0.13652  0.84594  0.08725  1.0000
  C   C76       1.0  0.10489000000000001  0.8147000000000001  0.11675999999999999  1.0000
  C   C77       1.0  0.12761000000000006  0.82231  0.16655  1.0000
  C   C78       1.0  0.1746  0.85948  0.16969  1.0000
  C   C79       1.0  0.21106000000000003  0.8743300000000002  0.21349  1.0000
  C   C80       1.0  0.25964  0.9092500000000001  0.21834  1.0000
  C   C81       1.0  0.2853800000000001  0.9358900000000002  0.18138  1.0000
  C   C82       1.0  0.27113  0.9331500000000003  0.1295  1.0000
  C   C83       1.0  0.22547  0.90472  0.10091999999999998  1.0000
  C   C84       1.0  0.18089000000000005  0.87403  0.11818999999999999  1.0000
  H   H41       1.0  0.09604999999999998  0.9268800000000001  0.03346  1.0000
  H   H42       1.0  0.06829000000000002  0.88718  0.9782399999999999  1.0000
  H   H43       1.0  0.09504  0.8094700000000001  0.01805  1.0000
  H   H44       1.0  0.17207  0.8245200000000001  0.01775  1.0000
  H   H45       1.0  0.07053000000000001  0.7857500000000001  0.10267999999999997  1.0000
  H   H46       1.0  0.20140000000000005  0.85798  0.24830999999999998  1.0000
  H   H47       1.0  0.28065  0.91662  0.25636  1.0000
  H   H48       1.0  0.32317  0.96136  0.19488  1.0000
  H   H49       1.0  0.30002000000000006  0.9561500000000002  0.10849  1.0000
  H   H50       1.0  0.22543  0.9073600000000003  0.06095  1.0000
  C   C85       1.0  0.8665100000000001  0.0852  0.53978  1.0000
  C   C86       1.0  0.84784  0.08487  0.59352  1.0000
  C   C87       1.0  0.9024600000000002  0.08635000000000001  0.6313799999999999  1.0000
  C   C88       1.0  0.91979  0.13179  0.66156  1.0000
  C   C89       1.0  0.9746700000000003  0.12066  0.6880299999999999  1.0000
  C   C90       1.0  0.99273  0.0671  0.67563  1.0000
  C   C91       1.0  0.04481  0.04122  0.69631  1.0000
  C   C92       1.0  0.06505000000000001  0.9882800000000002  0.68483  1.0000
  C   C93       1.0  0.03892000000000002  0.9487  0.65073  1.0000
  C   C94       1.0  0.9846000000000001  0.95038  0.62027  1.0000
  C   C95       1.0  0.9420900000000002  0.99271  0.6153399999999999  1.0000
  C   C96       1.0  0.9455700000000001  0.04469  0.63917  1.0000
  H   H51       1.0  0.9103000000000002  0.06347000000000001  0.53709  1.0000
  H   H52       1.0  0.8724400000000001  0.12814  0.52966  1.0000
  H   H53       1.0  0.81814  0.12111000000000001  0.60001  1.0000
  H   H54       1.0  0.8218700000000001  0.04799  0.59943  1.0000
  H   H55       1.0  0.89579  0.1708  0.66224  1.0000
  H   H56       1.0  0.07247  0.06370000000000002  0.72532  1.0000
  H   H57       1.0  0.10721  0.97599  0.70519  1.0000
  H   H58       1.0  0.06418999999999998  0.9105800000000002  0.6481099999999999  1.0000
  H   H59       1.0  0.9738800000000001  0.9133500000000002  0.59744  1.0000
  H   H60       1.0  0.9025600000000001  0.9836100000000002  0.5897  1.0000
  C   C97       1.0  0.90896  0.84842  0.81817  1.0000
  C   C98       1.0  0.9483400000000001  0.8635400000000002  0.86738  1.0000
  C   C99       1.0  0.92685  0.9168100000000001  0.89094  1.0000
  C   C100      1.0  0.8963200000000002  0.9209700000000001  0.93329  1.0000
  C   C101      1.0  0.8783  0.9749  0.94129  1.0000
  C   C102      1.0  0.8980300000000002  0.006350000000000077  0.90457  1.0000
  C   C103      1.0  0.8872  0.06239  0.90084  1.0000
  C   C104      1.0  0.90556  0.09545  0.86478  1.0000
  C   C105      1.0  0.9407500000000002  0.08178000000000002  0.82585  1.0000
  C   C106      1.0  0.96627  0.03146000000000001  0.81199  1.0000
  C   C107      1.0  0.9617100000000001  0.98065  0.8321399999999999  1.0000
  C   C108      1.0  0.93071  0.96885  0.87256  1.0000
  H   H61       1.0  0.8988  0.8853900000000001  0.7961  1.0000
  H   H62       1.0  0.8654600000000002  0.83238  0.82716  1.0000
  H   H63       1.0  0.9462600000000002  0.83005  0.89375  1.0000
  H   H64       1.0  0.9961500000000001  0.8676800000000001  0.86063  1.0000
  H   H65       1.0  0.88547  0.88708  0.95506  1.0000
  H   H66       1.0  0.86157  0.08324  0.92843  1.0000
  H   H67       1.0  0.89148  0.13811000000000007  0.86797  1.0000
  H   H68       1.0  0.9501499999999999  0.11546  0.80326  1.0000
  H   H69       1.0  0.9928600000000001  0.03178  0.78064  1.0000
  H   H70       1.0  0.9853000000000001  0.9472600000000002  0.81405  1.0000
  C   C109      1.0  0.11213000000000002  0.07667  0.45876  1.0000
  C   C110      1.0  0.12599000000000002  0.13212  0.43791  1.0000
  C   C111      1.0  0.11209000000000002  0.13318  0.38172  1.0000
  C   C112      1.0  0.0703  0.16852  0.35821  1.0000
  C   C113      1.0  0.07632000000000001  0.16617  0.30735  1.0000
  C   C114      1.0  0.12092  0.12764  0.29736  1.0000
  C   C115      1.0  0.13663  0.11239000000000003  0.24960999999999994  1.0000
  C   C116      1.0  0.18247  0.07616  0.2378  1.0000
  C   C117      1.0  0.22415000000000013  0.04807  0.26992  1.0000
  C   C118      1.0  0.2288200000000001  0.04547  0.32206  1.0000
  C   C119      1.0  0.19294  0.07067  0.35622  1.0000
  C   C120      1.0  0.14464  0.10665000000000001  0.34566  1.0000
  H   H71       1.0  0.0986  0.04578999999999999  0.4279999999999999  1.0000
  H   H72       1.0  0.07381999999999998  0.08215  0.4819599999999999  1.0000
  H   H73       1.0  0.09919999999999998  0.16477  0.45628999999999986  1.0000
  H   H74       1.0  0.17389  0.1432  0.44729  1.0000
  H   H75       1.0  0.04111999999999998  0.19682000000000005  0.37708999999999987  1.0000
  H   H76       1.0  0.11080000000000002  0.13001  0.21776  1.0000
  H   H77       1.0  0.18738000000000002  0.06986  0.19806999999999994  1.0000
  H   H78       1.0  0.2577400000000001  0.024350000000000004  0.25157  1.0000
  H   H79       1.0  0.2653  0.01983  0.3382099999999999  1.0000
  H   H80       1.0  0.20514  0.061360000000000005  0.39501  1.0000
  C   C121      1.0  0.14521  0.03962  0.82738  1.0000
  C   C122      1.0  0.18277  0.08533  0.80974  1.0000
  C   C123      1.0  0.22718000000000002  0.06347000000000001  0.77441  1.0000
  C   C124      1.0  0.21227  0.05458999999999999  0.7233699999999998  1.0000
  C   C125      1.0  0.26272  0.03804999999999992  0.70084  1.0000
  C   C126      1.0  0.31151000000000006  0.035760000000000014  0.7374999999999998  1.0000
  C   C127      1.0  0.36907  0.017600000000000286  0.7287199999999999  1.0000
  C   C128      1.0  0.41944  0.015269999999999893  0.76364  1.0000
  C   C129      1.0  0.42515  0.031169999999999993  0.8145899999999999  1.0000
  C   C130      1.0  0.38171000000000005  0.050920000000000014  0.845  1.0000
  C   C131      1.0  0.32042  0.059740000000000015  0.83257  1.0000
  C   C132      1.0  0.28866  0.05292000000000001  0.7852499999999998  1.0000
  H   H81       1.0  0.1281  0.01248  0.7948  1.0000
  H   H82       1.0  0.10565  0.05795  0.84436  1.0000
  H   H83       1.0  0.15183  0.11469  0.78927  1.0000
  H   H84       1.0  0.20519  0.10925000000000001  0.84241  1.0000
  H   H85       1.0  0.16873  0.062390000000000015  0.70348  1.0000
  H   H86       1.0  0.37632  0.0033000000000003014  0.69094  1.0000
  H   H87       1.0  0.46024  0.9996200000000001  0.7489899999999998  1.0000
  H   H88       1.0  0.47008000000000005  0.02712  0.83354  1.0000
  H   H89       1.0  0.39797  0.06014000000000001  0.88401  1.0000
  H   H90       1.0  0.29578000000000004  0.07373000000000002  0.86352  1.0000
  C   C133      1.0  0.02403  0.7747  0.40867  1.0000
  C   C134      1.0  0.03523000000000009  0.733  0.45029  1.0000
  C   C135      1.0  0.04444  0.7594200000000002  0.5026  1.0000
  C   C136      1.0  0.009719999999999958  0.74813  0.54049  1.0000
  C   C137      1.0  0.035550000000000005  0.7710600000000002  0.58561  1.0000
  C   C138      1.0  0.08788  0.7976600000000001  0.57707  1.0000
  C   C139      1.0  0.12891  0.8208000000000002  0.6144699999999998  1.0000
  C   C140      1.0  0.18115000000000003  0.8479900000000002  0.6081999999999997  1.0000
  C   C141      1.0  0.20697000000000004  0.8563700000000002  0.56424  1.0000
  C   C142      1.0  0.18905  0.8380900000000002  0.515  1.0000
  C   C143      1.0  0.13966000000000003  0.8069599999999999  0.49657  1.0000
  C   C144      1.0  0.09354  0.79024  0.52324  1.0000
  H   H91       1.0  0.04327000000000013  0.8152300000000002  0.42077  1.0000
  H   H92       1.0  0.97484  0.7815600000000003  0.39998  1.0000
  H   H93       1.0  0.9963300000000002  0.70507  0.44724  1.0000
  H   H94       1.0  0.07550999999999997  0.70656  0.44543  1.0000
  H   H95       1.0  0.97035  0.7227400000000002  0.53597  1.0000
  H   H96       1.0  0.12005  0.8188500000000001  0.65309  1.0000
  H   H97       1.0  0.20507  0.8652800000000005  0.64244  1.0000
  H   H98       1.0  0.24807  0.8791600000000002  0.56948  1.0000
  H   H99       1.0  0.21817  0.8490700000000001  0.4872799999999999  1.0000
  H   H100      1.0  0.13716000000000006  0.7959200000000002  0.45687  1.0000
  C   C145      1.0  0.7328600000000002  0.8989700000000002  0.14376  1.0000
  C   C146      1.0  0.78898  0.88235  0.17771999999999996  1.0000
  C   C147      1.0  0.80555  0.9254200000000002  0.21881  1.0000
  C   C148      1.0  0.7714700000000002  0.93617  0.25846  1.0000
  C   C149      1.0  0.8013100000000002  0.9727600000000001  0.29239  1.0000
  C   C150      1.0  0.8549700000000001  0.98672  0.27481  1.0000
  C   C151      1.0  0.89599  0.023100000000000002  0.29994  1.0000
  C   C152      1.0  0.95101  0.03750000000000001  0.28511  1.0000
  C   C153      1.0  0.9776  0.020470000000000002  0.24198  1.0000
  C   C154      1.0  0.9559900000000001  0.98556  0.20165999999999998  1.0000
  C   C155      1.0  0.9025700000000001  0.9568200000000001  0.19425  1.0000
  C   C156      1.0  0.85776  0.9563400000000005  0.22668  1.0000
  H   H101      1.0  0.6957800000000001  0.91237  0.16641  1.0000
  H   H102      1.0  0.71741  0.8625500000000003  0.11983999999999997  1.0000
  H   H103      1.0  0.7795700000000001  0.8439200000000002  0.19573  1.0000
  H   H104      1.0  0.8263400000000002  0.8722800000000003  0.15456  1.0000
  H   H105      1.0  0.7301300000000001  0.9160600000000001  0.26375  1.0000
  H   H106      1.0  0.88453  0.04254  0.335  1.0000
  H   H107      1.0  0.9768500000000001  0.06598000000000002  0.31063  1.0000
  H   H108      1.0  0.021349999999999997  0.03746000000000005  0.23908  1.0000
  H   H109      1.0  0.9852100000000001  0.9798000000000001  0.17189  1.0000
  H   H110      1.0  0.89636  0.9326800000000001  0.15927  1.0000
  C   C157      1.0  0.033209999999999996  0.17259  0.9066799999999999  1.0000
  C   C158      1.0  0.07454000000000001  0.19597000000000006  0.95211  1.0000
  C   C159      1.0  0.04074999999999998  0.23165  0.98778  1.0000
  C   C160      1.0  0.03426  0.21887  0.03668  1.0000
  C   C161      1.0  0.005549999999999944  0.26215000000000005  0.05999  1.0000
  C   C162      1.0  0.99177  0.30282  0.02586  1.0000
  C   C163      1.0  0.9604100000000001  0.3513  0.03611  1.0000
  C   C164      1.0  0.9447  0.39287  0.00335  1.0000
  C   C165      1.0  0.95799  0.39733000000000007  0.95404  1.0000
  C   C166      1.0  0.9911200000000002  0.36199000000000003  0.92457  1.0000
  C   C167      1.0  0.017670000000000005  0.3114700000000001  0.93564  1.0000
  C   C168      1.0  0.015440000000000016  0.28349  0.97929  1.0000
  H   H111      1.0  0.98514  0.17969000000000004  0.9125799999999997  1.0000
  H   H112      1.0  0.04081000000000002  0.12755  0.90274  1.0000
  H   H113      1.0  0.09610000000000003  0.16108  0.97274  1.0000
  H   H114      1.0  0.11197  0.21975999999999998  0.9403199999999999  1.0000
  H   H115      1.0  0.052379999999999996  0.18255000000000002  0.05479  1.0000
  H   H116      1.0  0.94491  0.35746000000000006  0.07297  1.0000
  H   H117      1.0  0.9187800000000003  0.42672000000000004  0.01836  1.0000
  H   H118      1.0  0.94091  0.4342200000000001  0.93623  1.0000
  H   H119      1.0  0.99639  0.37553  0.88753  1.0000
  H   H120      1.0  0.04226000000000003  0.29256  0.90662  1.0000
