data_image0
_chemical_formula_structural       C3HC2HC2HC3HCHC2HCHNHNNiO5C3HC2HC2HC3HCHC2HCHNHNNiO5C3HC2HC2HC3HCHC2HCHNHNNiO5C3HC2HC2HC3HCHC2HCHNHNNiO5C3HC2HC2HC3HCHC2HCHNHNNiO5C3HC2HC2HC3HCHC2HCHNHNNiO5C3HC2HC2HC3HCHC2HCHNHNNiO5C3HC2HC2HC3HCHC2HCHNHNNiO5
_chemical_formula_sum              "C112 H64 N16 Ni8 O40"
_cell_length_a       18.707
_cell_length_b       10.182
_cell_length_c       20.353
_cell_angle_alpha    90.0
_cell_angle_beta     90.0
_cell_angle_gamma    90.0

_space_group_name_H-M_alt    "P 1"
_space_group_IT_number       1

loop_
  _space_group_symop_operation_xyz
  'x, y, z'

loop_
  _atom_site_type_symbol
  _atom_site_label
  _atom_site_symmetry_multiplicity
  _atom_site_fract_x
  _atom_site_fract_y
  _atom_site_fract_z
  _atom_site_occupancy
  C   C1        1.0  0.57841  0.6224  0.43932  1.0000
  C   C2        1.0  0.61453  0.7404  0.41151  1.0000
  C   C3        1.0  0.58594  0.8645  0.42217  1.0000
  H   H1        1.0  0.5461  0.8743  0.449  1.0000
  C   C4        1.0  0.6162999999999998  0.9727  0.39321999999999996  1.0000
  C   C5        1.0  0.67682  0.9598999999999999  0.35374  1.0000
  H   H2        1.0  0.6975  0.0337  0.3346  1.0000
  C   C6        1.0  0.7060999999999998  0.8358  0.3431699999999999  1.0000
  C   C7        1.0  0.67462  0.7263  0.37109  1.0000
  H   H3        1.0  0.6934  0.6432  0.363  1.0000
  C   C8        1.0  0.58766  0.1081  0.40524999999999994  1.0000
  C   C9        1.0  0.77333  0.8884999999999998  0.24598999999999996  1.0000
  C   C10       1.0  0.9157099999999999  0.9627  0.12178  1.0000
  H   H4        1.0  0.9240999999999999  0.027199999999999995  0.09039999999999998  1.0000
  C   C11       1.0  0.8554399999999999  0.9702999999999998  0.16169  1.0000
  H   H5        1.0  0.8234  0.0393  0.15649999999999997  1.0000
  C   C12       1.0  0.84305  0.8756  0.20905  1.0000
  C   C13       1.0  0.89126  0.772  0.2163  1.0000
  H   H6        1.0  0.8836  0.7078  0.24799999999999994  1.0000
  C   C14       1.0  0.9508199999999999  0.7657  0.17576  1.0000
  H   H7        1.0  0.983  0.6967  0.1805  1.0000
  N   N1        1.0  0.76784  0.8227  0.3032599999999999  1.0000
  H   H8        1.0  0.8021  0.7723  0.3156999999999999  1.0000
  N   N2        1.0  0.9630200000000001  0.86  0.12865  1.0000
  Ni  Ni1       1.0  0.45082  0.6632799999999999  0.55143  1.0000
  O   O1        1.0  0.60166  0.51163  0.42456  1.0000
  O   O2        1.0  0.52552  0.63889  0.47547999999999996  1.0000
  O   O3        1.0  0.53322  0.11925999999999999  0.44064  1.0000
  O   O4        1.0  0.6174999999999999  0.20601  0.38105  1.0000
  O   O5        1.0  0.7264499999999999  0.9546999999999999  0.22331999999999996  1.0000
  C   C15       1.0  0.42159  0.3776  0.5606799999999998  1.0000
  C   C16       1.0  0.38547  0.2596  0.5884899999999998  1.0000
  C   C17       1.0  0.41406  0.1355  0.5778299999999998  1.0000
  H   H9        1.0  0.4539  0.1257  0.551  1.0000
  C   C18       1.0  0.3837  0.027299999999999998  0.60678  1.0000
  C   C19       1.0  0.32318  0.0401  0.64626  1.0000
  H   H10       1.0  0.3025  0.9663  0.6654  1.0000
  C   C20       1.0  0.2939  0.1642  0.6568299999999999  1.0000
  C   C21       1.0  0.32538  0.2737  0.6289099999999999  1.0000
  H   H11       1.0  0.3066  0.35679999999999995  0.637  1.0000
  C   C22       1.0  0.41234  0.8918999999999999  0.59475  1.0000
  C   C23       1.0  0.22666999999999998  0.1115  0.7540099999999998  1.0000
  C   C24       1.0  0.08429  0.0373  0.8782199999999999  1.0000
  H   H12       1.0  0.0759  0.9727999999999999  0.9096  1.0000
  C   C25       1.0  0.14456  0.029699999999999997  0.8383099999999999  1.0000
  H   H13       1.0  0.1766  0.9606999999999998  0.8435  1.0000
  C   C26       1.0  0.15695  0.1244  0.7909499999999999  1.0000
  C   C27       1.0  0.10874  0.228  0.7837  1.0000
  H   H14       1.0  0.1164  0.2922  0.752  1.0000
  C   C28       1.0  0.04918  0.2343  0.8242399999999998  1.0000
  H   H15       1.0  0.017  0.3033  0.8194999999999999  1.0000
  N   N3        1.0  0.23215999999999998  0.1773  0.6967399999999999  1.0000
  H   H16       1.0  0.1979  0.2277  0.6843  1.0000
  N   N4        1.0  0.03698  0.13999999999999999  0.8713499999999998  1.0000
  Ni  Ni2       1.0  0.54918  0.33671999999999996  0.44857  1.0000
  O   O6        1.0  0.39834  0.48837  0.57544  1.0000
  O   O7        1.0  0.47448  0.36111  0.52452  1.0000
  O   O8        1.0  0.4667799999999999  0.8807399999999999  0.55936  1.0000
  O   O9        1.0  0.38249999999999995  0.79399  0.61895  1.0000
  O   O10       1.0  0.27355  0.04529999999999999  0.77668  1.0000
  C   C29       1.0  0.9215899999999999  0.8775999999999999  0.93932  1.0000
  C   C30       1.0  0.8854699999999999  0.7595999999999999  0.91151  1.0000
  C   C31       1.0  0.91406  0.6355  0.9221699999999999  1.0000
  H   H17       1.0  0.9539  0.6257  0.949  1.0000
  C   C32       1.0  0.8836999999999999  0.5273  0.8932199999999999  1.0000
  C   C33       1.0  0.82318  0.5400999999999999  0.85374  1.0000
  H   H18       1.0  0.8025  0.4662999999999999  0.8345999999999999  1.0000
  C   C34       1.0  0.7939  0.6642  0.8431699999999999  1.0000
  C   C35       1.0  0.82538  0.7737  0.87109  1.0000
  H   H19       1.0  0.8065999999999999  0.8568  0.8629999999999999  1.0000
  C   C36       1.0  0.91234  0.3919  0.90525  1.0000
  C   C37       1.0  0.72667  0.6115  0.74599  1.0000
  C   C38       1.0  0.58429  0.5373  0.62178  1.0000
  H   H20       1.0  0.5759  0.4728  0.5904  1.0000
  C   C39       1.0  0.64456  0.5297  0.66169  1.0000
  H   H21       1.0  0.6765999999999999  0.46069999999999994  0.6565  1.0000
  C   C40       1.0  0.65695  0.6244  0.7090499999999998  1.0000
  C   C41       1.0  0.60874  0.728  0.7163  1.0000
  H   H22       1.0  0.6164  0.7922  0.748  1.0000
  C   C42       1.0  0.54918  0.7343  0.67576  1.0000
  H   H23       1.0  0.517  0.8032999999999999  0.6804999999999999  1.0000
  N   N5        1.0  0.73216  0.6772999999999999  0.8032599999999999  1.0000
  H   H24       1.0  0.6979  0.7277  0.8157  1.0000
  N   N6        1.0  0.53698  0.64  0.6286499999999999  1.0000
  Ni  Ni3       1.0  0.04918  0.83672  0.05143  1.0000
  O   O11       1.0  0.8983399999999999  0.9883699999999999  0.9245599999999999  1.0000
  O   O12       1.0  0.9744799999999999  0.8611099999999998  0.97548  1.0000
  O   O13       1.0  0.96678  0.38074  0.9406399999999998  1.0000
  O   O14       1.0  0.8824999999999998  0.29399  0.88105  1.0000
  O   O15       1.0  0.77355  0.5452999999999999  0.7233199999999999  1.0000
  C   C43       1.0  0.07841  0.12239999999999998  0.06067999999999999  1.0000
  C   C44       1.0  0.11452999999999999  0.24039999999999997  0.08849  1.0000
  C   C45       1.0  0.08594  0.3645  0.07783  1.0000
  H   H25       1.0  0.0461  0.3743  0.051  1.0000
  C   C46       1.0  0.1163  0.47269999999999995  0.10678  1.0000
  C   C47       1.0  0.17682  0.4599  0.14625999999999997  1.0000
  H   H26       1.0  0.1975  0.5337  0.16539999999999996  1.0000
  C   C48       1.0  0.2061  0.3358  0.15683  1.0000
  C   C49       1.0  0.17462  0.22629999999999997  0.12891  1.0000
  H   H27       1.0  0.1934  0.1432  0.137  1.0000
  C   C50       1.0  0.08766  0.6080999999999999  0.09475  1.0000
  C   C51       1.0  0.27333  0.3885  0.25401  1.0000
  C   C52       1.0  0.41571  0.46269999999999994  0.37822  1.0000
  H   H28       1.0  0.4240999999999999  0.5271999999999999  0.4096  1.0000
  C   C53       1.0  0.3554399999999999  0.47029999999999994  0.33831  1.0000
  H   H29       1.0  0.3234  0.5393  0.3435  1.0000
  C   C54       1.0  0.34305  0.3756  0.29094999999999993  1.0000
  C   C55       1.0  0.39126  0.272  0.28369999999999995  1.0000
  H   H30       1.0  0.3836  0.20779999999999998  0.252  1.0000
  C   C56       1.0  0.45082  0.2657  0.3242399999999999  1.0000
  H   H31       1.0  0.483  0.1967  0.3195  1.0000
  N   N7        1.0  0.26784  0.3227  0.19673999999999994  1.0000
  H   H32       1.0  0.3020999999999999  0.2723  0.1843  1.0000
  N   N8        1.0  0.46302  0.35999999999999993  0.37134999999999996  1.0000
  Ni  Ni4       1.0  0.9508199999999999  0.16327999999999998  0.94857  1.0000
  O   O16       1.0  0.10166  0.01163  0.07543999999999998  1.0000
  O   O17       1.0  0.02552  0.13889  0.02452  1.0000
  O   O18       1.0  0.03322  0.61926  0.05935999999999999  1.0000
  O   O19       1.0  0.11749999999999998  0.70601  0.11894999999999997  1.0000
  O   O20       1.0  0.22644999999999998  0.4547  0.27668  1.0000
  C   C57       1.0  0.42159  0.6224  0.06067999999999999  1.0000
  C   C58       1.0  0.38547  0.7404  0.08849  1.0000
  C   C59       1.0  0.41406  0.8645  0.07783  1.0000
  H   H33       1.0  0.4539  0.8743  0.051  1.0000
  C   C60       1.0  0.3837  0.9727  0.10678  1.0000
  C   C61       1.0  0.32318  0.9598999999999999  0.14625999999999997  1.0000
  H   H34       1.0  0.3025  0.0337  0.16539999999999996  1.0000
  C   C62       1.0  0.2939  0.8358  0.15683  1.0000
  C   C63       1.0  0.32538  0.7263  0.12891  1.0000
  H   H35       1.0  0.3066  0.6432  0.137  1.0000
  C   C64       1.0  0.41234  0.1081  0.09475  1.0000
  C   C65       1.0  0.22666999999999998  0.8884999999999998  0.25401  1.0000
  C   C66       1.0  0.08429  0.9627  0.37822  1.0000
  H   H36       1.0  0.0759  0.027199999999999995  0.4096  1.0000
  C   C67       1.0  0.14456  0.9702999999999998  0.33831  1.0000
  H   H37       1.0  0.1766  0.0393  0.3435  1.0000
  C   C68       1.0  0.15695  0.8756  0.29094999999999993  1.0000
  C   C69       1.0  0.10874  0.772  0.28369999999999995  1.0000
  H   H38       1.0  0.1164  0.7078  0.252  1.0000
  C   C70       1.0  0.04918  0.7657  0.3242399999999999  1.0000
  H   H39       1.0  0.017  0.6967  0.3195  1.0000
  N   N9        1.0  0.23215999999999998  0.8227  0.19673999999999994  1.0000
  H   H40       1.0  0.1979  0.7723  0.1843  1.0000
  N   N10       1.0  0.03698  0.86  0.37134999999999996  1.0000
  Ni  Ni5       1.0  0.54918  0.6632799999999999  0.94857  1.0000
  O   O21       1.0  0.39834  0.51163  0.07543999999999998  1.0000
  O   O22       1.0  0.47448  0.63889  0.02452  1.0000
  O   O23       1.0  0.4667799999999999  0.11925999999999999  0.05935999999999999  1.0000
  O   O24       1.0  0.38249999999999995  0.20601  0.11894999999999997  1.0000
  O   O25       1.0  0.27355  0.9546999999999999  0.27668  1.0000
  C   C71       1.0  0.57841  0.3776  0.93932  1.0000
  C   C72       1.0  0.61453  0.2596  0.91151  1.0000
  C   C73       1.0  0.58594  0.1355  0.9221699999999999  1.0000
  H   H41       1.0  0.5461  0.1257  0.949  1.0000
  C   C74       1.0  0.6162999999999998  0.027299999999999998  0.8932199999999999  1.0000
  C   C75       1.0  0.67682  0.0401  0.85374  1.0000
  H   H42       1.0  0.6975  0.9663  0.8345999999999999  1.0000
  C   C76       1.0  0.7060999999999998  0.1642  0.8431699999999999  1.0000
  C   C77       1.0  0.67462  0.2737  0.87109  1.0000
  H   H43       1.0  0.6934  0.35679999999999995  0.8629999999999999  1.0000
  C   C78       1.0  0.58766  0.8918999999999999  0.90525  1.0000
  C   C79       1.0  0.77333  0.1115  0.74599  1.0000
  C   C80       1.0  0.9157099999999999  0.0373  0.62178  1.0000
  H   H44       1.0  0.9240999999999999  0.9727999999999999  0.5904  1.0000
  C   C81       1.0  0.8554399999999999  0.029699999999999997  0.66169  1.0000
  H   H45       1.0  0.8234  0.9606999999999998  0.6565  1.0000
  C   C82       1.0  0.84305  0.1244  0.7090499999999998  1.0000
  C   C83       1.0  0.89126  0.228  0.7163  1.0000
  H   H46       1.0  0.8836  0.2922  0.748  1.0000
  C   C84       1.0  0.9508199999999999  0.2343  0.67576  1.0000
  H   H47       1.0  0.983  0.3033  0.6804999999999999  1.0000
  N   N11       1.0  0.76784  0.1773  0.8032599999999999  1.0000
  H   H48       1.0  0.8021  0.2277  0.8157  1.0000
  N   N12       1.0  0.9630200000000001  0.13999999999999999  0.6286499999999999  1.0000
  Ni  Ni6       1.0  0.45082  0.33671999999999996  0.05143  1.0000
  O   O26       1.0  0.60166  0.48837  0.9245599999999999  1.0000
  O   O27       1.0  0.52552  0.36111  0.97548  1.0000
  O   O28       1.0  0.53322  0.8807399999999999  0.9406399999999998  1.0000
  O   O29       1.0  0.6174999999999999  0.79399  0.88105  1.0000
  O   O30       1.0  0.7264499999999999  0.04529999999999999  0.7233199999999999  1.0000
  C   C85       1.0  0.07841  0.8775999999999999  0.5606799999999998  1.0000
  C   C86       1.0  0.11452999999999999  0.7595999999999999  0.5884899999999998  1.0000
  C   C87       1.0  0.08594  0.6355  0.5778299999999998  1.0000
  H   H49       1.0  0.0461  0.6257  0.551  1.0000
  C   C88       1.0  0.1163  0.5273  0.60678  1.0000
  C   C89       1.0  0.17682  0.5400999999999999  0.64626  1.0000
  H   H50       1.0  0.1975  0.4662999999999999  0.6654  1.0000
  C   C90       1.0  0.2061  0.6642  0.6568299999999999  1.0000
  C   C91       1.0  0.17462  0.7737  0.6289099999999999  1.0000
  H   H51       1.0  0.1934  0.8568  0.637  1.0000
  C   C92       1.0  0.08766  0.3919  0.59475  1.0000
  C   C93       1.0  0.27333  0.6115  0.7540099999999998  1.0000
  C   C94       1.0  0.41571  0.5373  0.8782199999999999  1.0000
  H   H52       1.0  0.4240999999999999  0.4728  0.9096  1.0000
  C   C95       1.0  0.3554399999999999  0.5297  0.8383099999999999  1.0000
  H   H53       1.0  0.3234  0.46069999999999994  0.8435  1.0000
  C   C96       1.0  0.34305  0.6244  0.7909499999999999  1.0000
  C   C97       1.0  0.39126  0.728  0.7837  1.0000
  H   H54       1.0  0.3836  0.7922  0.752  1.0000
  C   C98       1.0  0.45082  0.7343  0.8242399999999998  1.0000
  H   H55       1.0  0.483  0.8032999999999999  0.8194999999999999  1.0000
  N   N13       1.0  0.26784  0.6772999999999999  0.6967399999999999  1.0000
  H   H56       1.0  0.3020999999999999  0.7277  0.6843  1.0000
  N   N14       1.0  0.46302  0.64  0.8713499999999998  1.0000
  Ni  Ni7       1.0  0.9508199999999999  0.83672  0.44857  1.0000
  O   O31       1.0  0.10166  0.9883699999999999  0.57544  1.0000
  O   O32       1.0  0.02552  0.8611099999999998  0.52452  1.0000
  O   O33       1.0  0.03322  0.38074  0.55936  1.0000
  O   O34       1.0  0.11749999999999998  0.29399  0.61895  1.0000
  O   O35       1.0  0.22644999999999998  0.5452999999999999  0.77668  1.0000
  C   C99       1.0  0.9215899999999999  0.12239999999999998  0.43932  1.0000
  C   C100      1.0  0.8854699999999999  0.24039999999999997  0.41151  1.0000
  C   C101      1.0  0.91406  0.3645  0.42217  1.0000
  H   H57       1.0  0.9539  0.3743  0.449  1.0000
  C   C102      1.0  0.8836999999999999  0.47269999999999995  0.39321999999999996  1.0000
  C   C103      1.0  0.82318  0.4599  0.35374  1.0000
  H   H58       1.0  0.8025  0.5337  0.3346  1.0000
  C   C104      1.0  0.7939  0.3358  0.3431699999999999  1.0000
  C   C105      1.0  0.82538  0.22629999999999997  0.37109  1.0000
  H   H59       1.0  0.8065999999999999  0.1432  0.363  1.0000
  C   C106      1.0  0.91234  0.6080999999999999  0.40524999999999994  1.0000
  C   C107      1.0  0.72667  0.3885  0.24598999999999996  1.0000
  C   C108      1.0  0.58429  0.46269999999999994  0.12178  1.0000
  H   H60       1.0  0.5759  0.5271999999999999  0.09039999999999998  1.0000
  C   C109      1.0  0.64456  0.47029999999999994  0.16169  1.0000
  H   H61       1.0  0.6765999999999999  0.5393  0.15649999999999997  1.0000
  C   C110      1.0  0.65695  0.3756  0.20905  1.0000
  C   C111      1.0  0.60874  0.272  0.2163  1.0000
  H   H62       1.0  0.6164  0.20779999999999998  0.24799999999999994  1.0000
  C   C112      1.0  0.54918  0.2657  0.17576  1.0000
  H   H63       1.0  0.517  0.1967  0.1805  1.0000
  N   N15       1.0  0.73216  0.3227  0.3032599999999999  1.0000
  H   H64       1.0  0.6979  0.2723  0.3156999999999999  1.0000
  N   N16       1.0  0.53698  0.35999999999999993  0.12865  1.0000
  Ni  Ni8       1.0  0.04918  0.16327999999999998  0.55143  1.0000
  O   O36       1.0  0.8983399999999999  0.01163  0.42456  1.0000
  O   O37       1.0  0.9744799999999999  0.13889  0.47547999999999996  1.0000
  O   O38       1.0  0.96678  0.61926  0.44064  1.0000
  O   O39       1.0  0.8824999999999998  0.70601  0.38105  1.0000
  O   O40       1.0  0.77355  0.4547  0.22331999999999996  1.0000
