data_image0
_chemical_formula_structural       MnO6C3HCHC2HCHC3HCHC2HCHC3HCHC2HCHMnO6C3HCHC2HCHC3HCHC2HCHC3HCHC2HCHMnO6C3HCHC2HCHC3HCHC2HCHC3HCHC2HCHMnO6C3HCHC2HCHC3HCHC2HCHC3HCHC2HCHMn2
_chemical_formula_sum              "Mn6 O24 C84 H48"
_cell_length_a       13.9444
_cell_length_b       18.1187
_cell_length_c       12.075799999999997
_cell_angle_alpha    90.0
_cell_angle_beta     112.894
_cell_angle_gamma    90.0

_symmetry_space_group_name_H-M    'P 1'
_symmetry_Int_Tables_number       1

loop_
  _symmetry_equiv_pos_as_xyz
  'x,y,z'

loop_
  _atom_site_type_symbol
  _atom_site_label
  _atom_site_symmetry_multiplicity
  _atom_site_fract_x
  _atom_site_fract_y
  _atom_site_fract_z
  _atom_site_occupancy
  Mn  Mn1       1.0  0.41864999999999997  0.51944  0.17075  1.0000
  O   O1        1.0  0.37304999999999994  0.58003  0.42353  1.0000
  O   O2        1.0  0.33040999999999987  0.5954199999999998  0.22518000000000002  1.0000
  O   O3        1.0  0.65771  0.92445  0.29888  1.0000
  O   O4        1.0  0.6073999999999999  0.9119000000000002  0.09877  1.0000
  O   O5        1.0  0.5533  0.51625  0.35394  1.0000
  O   O6        1.0  0.56655  0.46024  0.19775000000000004  1.0000
  C   C1        1.0  0.31790999999999997  0.60565  0.32196  1.0000
  C   C2        1.0  0.22610999999999995  0.65361  0.31178  1.0000
  C   C3        1.0  0.18474  0.65153  0.39991  1.0000
  H   H1        1.0  0.21669999999999998  0.6229  0.46840000000000004  1.0000
  C   C4        1.0  0.09587  0.692  0.38622  1.0000
  H   H2        1.0  0.0684  0.6893  0.445  1.0000
  C   C5        1.0  0.047359999999999985  0.73672  0.28522  1.0000
  C   C6        1.0  0.09203999999999997  0.74094  0.19966  1.0000
  H   H3        1.0  0.0629  0.7721  0.1338  1.0000
  C   C7        1.0  0.17931  0.69923  0.21168  1.0000
  H   H4        1.0  0.20669999999999997  0.7017  0.1528  1.0000
  C   C8        1.0  0.6674  0.90005  0.20601  1.0000
  C   C9        1.0  0.7623899999999999  0.85285  0.22736  1.0000
  C   C10       1.0  0.8405599999999998  0.84766  0.34254  1.0000
  H   H5        1.0  0.8313  0.87  0.40690000000000004  1.0000
  C   C11       1.0  0.9321999999999998  0.80936  0.36191  1.0000
  H   H6        1.0  0.9829999999999999  0.8059  0.4393  1.0000
  C   C12       1.0  0.94882  0.77598  0.26613  1.0000
  C   C13       1.0  0.86903  0.78  0.15127  1.0000
  H   H7        1.0  0.8779  0.7573  0.0868  1.0000
  C   C14       1.0  0.77669  0.81741  0.13229  1.0000
  H   H8        1.0  0.7242  0.8187999999999999  0.055700000000000006  1.0000
  C   C15       1.0  0.6077  0.4857  0.3021  1.0000
  C   C16       1.0  0.72342  0.48582999999999993  0.36443  1.0000
  C   C17       1.0  0.7709799999999999  0.52897  0.4665  1.0000
  H   H9        1.0  0.7305  0.5542  0.4997  1.0000
  C   C18       1.0  0.87875  0.53453  0.5191  1.0000
  H   H10       1.0  0.9093999999999998  0.5642  0.5865  1.0000
  C   C19       1.0  0.9422899999999996  0.49627999999999994  0.4725599999999999  1.0000
  C   C20       1.0  0.8927999999999998  0.45071000000000006  0.37254999999999994  1.0000
  H   H11       1.0  0.9331  0.4229  0.3421  1.0000
  C   C21       1.0  0.7849299999999998  0.44611  0.31794  1.0000
  H   H12       1.0  0.7537999999999999  0.4166  0.2504  1.0000
  Mn  Mn2       1.0  0.5813499999999998  0.01944  0.32925  1.0000
  O   O7        1.0  0.6269499999999998  0.08003  0.07647  1.0000
  O   O8        1.0  0.66959  0.09542  0.27482  1.0000
  O   O9        1.0  0.34229  0.42445  0.20112  1.0000
  O   O10       1.0  0.3926  0.4119  0.40123000000000003  1.0000
  O   O11       1.0  0.4467  0.01625  0.14606  1.0000
  O   O12       1.0  0.4334499999999998  0.96024  0.30225  1.0000
  C   C22       1.0  0.6820899999999998  0.10565  0.17804  1.0000
  C   C23       1.0  0.7738899999999999  0.15361  0.18822  1.0000
  C   C24       1.0  0.8152599999999998  0.15152999999999997  0.10009  1.0000
  H   H13       1.0  0.7832999999999999  0.1229  0.0316  1.0000
  C   C25       1.0  0.90413  0.192  0.11378  1.0000
  H   H14       1.0  0.9316  0.1893  0.055  1.0000
  C   C26       1.0  0.95264  0.23672  0.21478  1.0000
  C   C27       1.0  0.9079599999999998  0.24094  0.30034  1.0000
  H   H15       1.0  0.9370999999999998  0.2721  0.3662  1.0000
  C   C28       1.0  0.8206899999999998  0.19923  0.28832  1.0000
  H   H16       1.0  0.7933  0.2017  0.3472  1.0000
  C   C29       1.0  0.3326  0.40005  0.29399  1.0000
  C   C30       1.0  0.23760999999999993  0.35285  0.27264  1.0000
  C   C31       1.0  0.15944  0.34766  0.15746  1.0000
  H   H17       1.0  0.1687  0.37  0.0931  1.0000
  C   C32       1.0  0.06779999999999999  0.30936  0.13809  1.0000
  H   H18       1.0  0.016999999999999998  0.30589999999999995  0.060700000000000004  1.0000
  C   C33       1.0  0.051180000000000024  0.27598  0.23387000000000002  1.0000
  C   C34       1.0  0.13097  0.28  0.34873  1.0000
  H   H19       1.0  0.12209999999999997  0.2572999999999999  0.4132  1.0000
  C   C35       1.0  0.22330999999999995  0.31741  0.36771  1.0000
  H   H20       1.0  0.2758  0.3188  0.4443  1.0000
  C   C36       1.0  0.3923  0.9857  0.19790000000000002  1.0000
  C   C37       1.0  0.27658  0.9858299999999999  0.13557  1.0000
  C   C38       1.0  0.22901999999999995  0.028969999999999996  0.0335  1.0000
  H   H21       1.0  0.2695  0.0542  0.0003  1.0000
  C   C39       1.0  0.12125000000000001  0.03453  0.9809  1.0000
  H   H22       1.0  0.09059999999999996  0.0642  0.9134999999999999  1.0000
  C   C40       1.0  0.05770999999999999  0.9962799999999999  0.02744  1.0000
  C   C41       1.0  0.1072  0.9507100000000002  0.12745  1.0000
  H   H23       1.0  0.06689999999999999  0.9229000000000002  0.1579  1.0000
  C   C42       1.0  0.21506999999999996  0.9461099999999999  0.18206  1.0000
  H   H24       1.0  0.2462  0.9166  0.2496  1.0000
  Mn  Mn3       1.0  0.5813499999999998  0.48056  0.82925  1.0000
  O   O13       1.0  0.6269499999999998  0.41997  0.57647  1.0000
  O   O14       1.0  0.66959  0.40458  0.77482  1.0000
  O   O15       1.0  0.34229  0.07555  0.70112  1.0000
  O   O16       1.0  0.3926  0.0881  0.90123  1.0000
  O   O17       1.0  0.4467  0.48375  0.64606  1.0000
  O   O18       1.0  0.4334499999999999  0.53976  0.80225  1.0000
  C   C43       1.0  0.6820899999999998  0.39435  0.67804  1.0000
  C   C44       1.0  0.77389  0.34639  0.68822  1.0000
  C   C45       1.0  0.8152599999999998  0.34847  0.60009  1.0000
  H   H25       1.0  0.7832999999999999  0.3771  0.5316  1.0000
  C   C46       1.0  0.9041300000000001  0.308  0.61378  1.0000
  H   H26       1.0  0.9316  0.3107  0.555  1.0000
  C   C47       1.0  0.95264  0.26328  0.71478  1.0000
  C   C48       1.0  0.9079599999999998  0.25906  0.80034  1.0000
  H   H27       1.0  0.9370999999999998  0.2279  0.8662000000000001  1.0000
  C   C49       1.0  0.8206899999999998  0.30077  0.78832  1.0000
  H   H28       1.0  0.7933  0.2983  0.8472  1.0000
  C   C50       1.0  0.3326  0.09995  0.79399  1.0000
  C   C51       1.0  0.23760999999999996  0.14715  0.7726400000000001  1.0000
  C   C52       1.0  0.15944  0.15234  0.65746  1.0000
  H   H29       1.0  0.1687  0.13  0.5931  1.0000
  C   C53       1.0  0.06779999999999999  0.19064  0.63809  1.0000
  H   H30       1.0  0.017000000000000008  0.1941  0.5607  1.0000
  C   C54       1.0  0.05117999999999995  0.22401999999999997  0.73387  1.0000
  C   C55       1.0  0.13096999999999992  0.22  0.8487299999999999  1.0000
  H   H31       1.0  0.12209999999999993  0.2427  0.9132  1.0000
  C   C56       1.0  0.22330999999999998  0.18259  0.8677100000000001  1.0000
  H   H32       1.0  0.27579999999999993  0.18119999999999997  0.9443000000000001  1.0000
  C   C57       1.0  0.3923  0.5143  0.6979  1.0000
  C   C58       1.0  0.27658  0.51417  0.63557  1.0000
  C   C59       1.0  0.22901999999999995  0.47103  0.5335  1.0000
  H   H33       1.0  0.2695  0.44580000000000003  0.5003  1.0000
  C   C60       1.0  0.12124999999999998  0.46546999999999994  0.48090000000000005  1.0000
  H   H34       1.0  0.0906  0.4358  0.4135  1.0000
  C   C61       1.0  0.05771  0.50372  0.52744  1.0000
  C   C62       1.0  0.1072  0.54929  0.62745  1.0000
  H   H35       1.0  0.06689999999999999  0.5771  0.6579  1.0000
  C   C63       1.0  0.21506999999999996  0.55389  0.68206  1.0000
  H   H36       1.0  0.24619999999999997  0.5833999999999999  0.7496000000000002  1.0000
  Mn  Mn4       1.0  0.41864999999999997  0.98056  0.67075  1.0000
  O   O19       1.0  0.37304999999999994  0.91997  0.92353  1.0000
  O   O20       1.0  0.33040999999999987  0.9045799999999999  0.72518  1.0000
  O   O21       1.0  0.65771  0.57555  0.79888  1.0000
  O   O22       1.0  0.6073999999999999  0.5881  0.59877  1.0000
  O   O23       1.0  0.5533  0.9837499999999999  0.85394  1.0000
  O   O24       1.0  0.56655  0.03976  0.69775  1.0000
  C   C64       1.0  0.31790999999999997  0.89435  0.82196  1.0000
  C   C65       1.0  0.22610999999999995  0.84639  0.81178  1.0000
  C   C66       1.0  0.18474  0.84847  0.89991  1.0000
  H   H37       1.0  0.21669999999999998  0.8771  0.9684  1.0000
  C   C67       1.0  0.09586999999999993  0.808  0.8862199999999999  1.0000
  H   H38       1.0  0.0684  0.8107  0.9450000000000001  1.0000
  C   C68       1.0  0.047360000000000034  0.76328  0.7852200000000001  1.0000
  C   C69       1.0  0.09203999999999997  0.75906  0.69966  1.0000
  H   H39       1.0  0.06289999999999994  0.7279  0.6338  1.0000
  C   C70       1.0  0.17931  0.80077  0.71168  1.0000
  H   H40       1.0  0.20669999999999997  0.7983  0.6528  1.0000
  C   C71       1.0  0.6674  0.59995  0.70601  1.0000
  C   C72       1.0  0.7623899999999999  0.64715  0.7273599999999999  1.0000
  C   C73       1.0  0.8405599999999998  0.65234  0.84254  1.0000
  H   H41       1.0  0.8313  0.6299999999999999  0.9069000000000002  1.0000
  C   C74       1.0  0.9321999999999998  0.69064  0.8619100000000001  1.0000
  H   H42       1.0  0.9829999999999999  0.6941  0.9393  1.0000
  C   C75       1.0  0.94882  0.72402  0.76613  1.0000
  C   C76       1.0  0.86903  0.7199999999999999  0.65127  1.0000
  H   H43       1.0  0.8779  0.7427  0.5868  1.0000
  C   C77       1.0  0.77669  0.68259  0.63229  1.0000
  H   H44       1.0  0.7242  0.6812  0.5557  1.0000
  C   C78       1.0  0.6077  0.0143  0.8020999999999999  1.0000
  C   C79       1.0  0.72342  0.01417  0.86443  1.0000
  C   C80       1.0  0.7709799999999999  0.97103  0.9665  1.0000
  H   H45       1.0  0.7305  0.9458  0.9997  1.0000
  C   C81       1.0  0.87875  0.9654699999999999  0.0191  1.0000
  H   H46       1.0  0.9093999999999998  0.9358  0.0865  1.0000
  C   C82       1.0  0.9422899999999997  0.00372  0.97256  1.0000
  C   C83       1.0  0.8927999999999998  0.04929  0.8725500000000002  1.0000
  H   H47       1.0  0.9331  0.0771  0.8421  1.0000
  C   C84       1.0  0.7849299999999998  0.05389  0.81794  1.0000
  H   H48       1.0  0.7537999999999999  0.0834  0.7503999999999998  1.0000
  Mn  Mn5       1.0  0.4999999999999998  0.5  0.5  1.0000
  Mn  Mn6       1.0  0.4999999999999999  0.0  0.0  1.0000
