data_image0
_chemical_formula_structural       Mn2O6C2OCOC9HCHC2HCHC6HCHC2HC2HC3HCHCHCHCHCHC2HCHCHCHCHCHCHCHMn2O6C2OCOC9HCHC2HCHC6HCHC2HC2HC3HCHCHCHCHCHC2HCHCHCHCHCHCHCHMn2O6C2OCOC9HCHC2HCHC6HCHC2HC2HC3HCHCHCHCHCHC2HCHCHCHCHCHCHCHMn2O6C2OCOC9HCHC2HCHC6HCHC2HC2HC3HCHCHCHCHCHC2HCHCHCHCHCHCHCH
_chemical_formula_sum              "Mn8 O32 C176 H88"
_cell_length_a       6.997
_cell_length_b       25.4831
_cell_length_c       28.264200000000002
_cell_angle_alpha    90.0
_cell_angle_beta     92.712
_cell_angle_gamma    90.0

_space_group_name_H-M_alt    "P 1"
_space_group_IT_number       1

loop_
  _space_group_symop_operation_xyz
  'x, y, z'

loop_
  _atom_site_type_symbol
  _atom_site_label
  _atom_site_symmetry_multiplicity
  _atom_site_fract_x
  _atom_site_fract_y
  _atom_site_fract_z
  _atom_site_occupancy
  Mn  Mn1       1.0  0.2006  0.93068  0.24834  1.0000
  Mn  Mn2       1.0  0.65369  0.53332  0.73533  1.0000
  O   O1        1.0  0.8781  0.5841  0.76825  1.0000
  O   O2        1.0  0.46770000000000006  0.89828  0.22233  1.0000
  O   O3        1.0  0.5392  0.47257000000000005  0.20629999999999996  1.0000
  O   O4        1.0  0.12429999999999995  0.6215  0.8040599999999998  1.0000
  O   O5        1.0  0.2083  0.8643999999999998  0.18867  1.0000
  O   O6        1.0  0.8333  0.014989999999999998  0.80837  1.0000
  C   C1        1.0  0.9907  0.7593  0.0416  1.0000
  C   C2        1.0  0.06259999999999995  0.7862  0.9586999999999998  1.0000
  O   O7        1.0  0.5427000000000002  0.9795  0.8014  1.0000
  C   C3        1.0  0.35540000000000005  0.7126  0.9582  1.0000
  O   O8        1.0  0.8283999999999999  0.5026  0.20307999999999998  1.0000
  C   C4        1.0  0.2841  0.6868  0.0422  1.0000
  C   C5        1.0  0.0963  0.7536  0.0004999999999999999  1.0000
  C   C6        1.0  0.3842  0.8682  0.1908  1.0000
  C   C7        1.0  0.24599999999999994  0.7176  0.9989999999999998  1.0000
  C   C8        1.0  0.7139  0.9796  0.8166  1.0000
  C   C9        1.0  0.508  0.6749000000000002  0.961  1.0000
  C   C10       1.0  0.9487  0.6121  0.8012  1.0000
  C   C11       1.0  0.8312  0.6327999999999999  0.8395999999999999  1.0000
  C   C12       1.0  0.02  0.7272  0.0823  1.0000
  H   H1        1.0  0.9402  0.7297  0.1076  1.0000
  C   C13       1.0  0.3276  0.7437  0.9164  1.0000
  H   H2        1.0  0.4036  0.7399  0.8905  1.0000
  C   C14       1.0  0.443  0.6508  0.0382  1.0000
  C   C15       1.0  0.1825  0.6894  0.0832  1.0000
  H   H3        1.0  0.21399999999999997  0.6688  0.10959999999999998  1.0000
  C   C16       1.0  0.8045  0.8248  0.1243  1.0000
  H   H4        1.0  0.9374  0.8257  0.1275  1.0000
  C   C17       1.0  0.8615999999999999  0.8609  0.9204  1.0000
  C   C18       1.0  0.622  0.6635  0.9174999999999999  1.0000
  C   C19       1.0  0.5913  0.5428  0.1536  1.0000
  C   C20       1.0  0.9103  0.8222  0.9617  1.0000
  C   C21       1.0  0.4947  0.6134  0.0808  1.0000
  C   C22       1.0  0.9528999999999997  0.9311  0.8676999999999998  1.0000
  H   H5        1.0  0.0482  0.9524  0.8562999999999998  1.0000
  C   C23       1.0  0.16629999999999995  0.7831  0.9170999999999998  1.0000
  H   H6        1.0  0.13649999999999998  0.8045  0.8910999999999998  1.0000
  C   C24       1.0  0.7728  0.9373  0.8511999999999998  1.0000
  C   C25       1.0  0.6974  0.8395  0.16339999999999993  1.0000
  H   H7        1.0  0.7575  0.8476  0.1925  1.0000
  C   C26       1.0  0.7189  0.8092000000000001  0.0818  1.0000
  C   C27       1.0  0.5515  0.6467000000000002  0.0003  1.0000
  H   H8        1.0  0.6566  0.6243  0.0012  1.0000
  C   C28       1.0  0.5042  0.8413  0.157  1.0000
  C   C29       1.0  0.6538  0.5048  0.19039999999999996  1.0000
  C   C30       1.0  0.7979  0.8262  0.9991999999999999  1.0000
  H   H9        1.0  0.6935  0.8488  0.9978999999999998  1.0000
  C   C31       1.0  0.5317  0.6476  0.8728  1.0000
  H   H10       1.0  0.3989  0.6475  0.8692999999999999  1.0000
  C   C32       1.0  0.6369  0.6329  0.8356999999999999  1.0000
  H   H11       1.0  0.575  0.6228  0.8073  1.0000
  C   C33       1.0  0.9224000000000001  0.6482  0.8822999999999999  1.0000
  H   H12       1.0  0.05539999999999998  0.6482  0.8851  1.0000
  C   C34       1.0  0.6317  0.9047  0.8696  1.0000
  H   H13       1.0  0.5056000000000002  0.9083  0.8582  1.0000
  C   C35       1.0  0.4199  0.8219  0.11429999999999997  1.0000
  H   H14       1.0  0.2874  0.8185  0.11189999999999997  1.0000
  C   C36       1.0  0.8382  0.7967000000000001  0.0393  1.0000
  C   C37       1.0  0.6782  0.6112  0.0987  1.0000
  H   H15       1.0  0.7684  0.6342000000000001  0.0873  1.0000
  C   C38       1.0  0.0009999999999999569  0.893  0.9016999999999997  1.0000
  H   H16       1.0  0.12819999999999995  0.889  0.9120999999999998  1.0000
  C   C39       1.0  0.3569  0.5799  0.09969999999999997  1.0000
  H   H17       1.0  0.2307  0.5817  0.08789999999999999  1.0000
  C   C40       1.0  0.5192  0.8081  0.07699999999999997  1.0000
  H   H18       1.0  0.4571  0.7979  0.0487  1.0000
  C   C41       1.0  0.8201  0.6635  0.9203  1.0000
  H   H19       1.0  0.8848  0.6739  0.9481999999999998  1.0000
  C   C42       1.0  0.4065  0.544  0.136  1.0000
  H   H20       1.0  0.3153  0.5216  0.1477  1.0000
  C   C43       1.0  0.6733  0.8685999999999999  0.9030999999999998  1.0000
  H   H21       1.0  0.5755  0.8485000000000001  0.915  1.0000
  C   C44       1.0  0.7332  0.5757  0.1334  1.0000
  H   H22       1.0  0.8611  0.573  0.1437  1.0000
  Mn  Mn3       1.0  0.7994  0.43067999999999995  0.25166  1.0000
  Mn  Mn4       1.0  0.3463100000000001  0.03332  0.7646699999999997  1.0000
  O   O9        1.0  0.1219  0.0841  0.73175  1.0000
  O   O10       1.0  0.5323  0.39828  0.27767  1.0000
  O   O11       1.0  0.46079999999999993  0.97257  0.2936999999999999  1.0000
  O   O12       1.0  0.8757  0.1215  0.69594  1.0000
  O   O13       1.0  0.7917000000000001  0.3644  0.31132999999999994  1.0000
  O   O14       1.0  0.1667  0.51499  0.69163  1.0000
  C   C45       1.0  0.009299999999999996  0.2593  0.4584  1.0000
  C   C46       1.0  0.9374  0.2862  0.5413  1.0000
  O   O15       1.0  0.4573  0.4795  0.6986  1.0000
  C   C47       1.0  0.6446  0.2126  0.5417999999999998  1.0000
  O   O16       1.0  0.17159999999999995  0.0025999999999999994  0.2969199999999999  1.0000
  C   C48       1.0  0.7159000000000001  0.18679999999999997  0.4577999999999999  1.0000
  C   C49       1.0  0.9037000000000001  0.2536  0.4994999999999999  1.0000
  C   C50       1.0  0.6158  0.3682000000000001  0.30919999999999986  1.0000
  C   C51       1.0  0.754  0.21759999999999996  0.501  1.0000
  C   C52       1.0  0.2861  0.47959999999999997  0.6833999999999998  1.0000
  C   C53       1.0  0.492  0.17489999999999997  0.539  1.0000
  C   C54       1.0  0.051300000000000005  0.11209999999999999  0.6988  1.0000
  C   C55       1.0  0.1688  0.1328  0.6604  1.0000
  C   C56       1.0  0.98  0.2272  0.4176999999999999  1.0000
  H   H23       1.0  0.05979999999999998  0.2297  0.3923999999999999  1.0000
  C   C57       1.0  0.6724000000000001  0.2437  0.5835999999999998  1.0000
  H   H24       1.0  0.5964  0.2399  0.6094999999999998  1.0000
  C   C58       1.0  0.557  0.1508  0.4617999999999999  1.0000
  C   C59       1.0  0.8175  0.1894  0.4168  1.0000
  H   H25       1.0  0.786  0.1688  0.3903999999999999  1.0000
  C   C60       1.0  0.1955  0.3248  0.3757  1.0000
  H   H26       1.0  0.06260000000000003  0.3257  0.3725  1.0000
  C   C61       1.0  0.13839999999999994  0.36090000000000005  0.5795999999999998  1.0000
  C   C62       1.0  0.378  0.1635  0.5825  1.0000
  C   C63       1.0  0.40870000000000006  0.042800000000000005  0.34639999999999993  1.0000
  C   C64       1.0  0.0897  0.3222  0.5383  1.0000
  C   C65       1.0  0.5053  0.11340000000000001  0.4192  1.0000
  C   C66       1.0  0.04710000000000002  0.4311  0.6323  1.0000
  H   H27       1.0  0.9518  0.4524  0.6437  1.0000
  C   C67       1.0  0.8337  0.2831  0.5829  1.0000
  H   H28       1.0  0.8635  0.3045  0.6089  1.0000
  C   C68       1.0  0.2272  0.43729999999999997  0.6488  1.0000
  C   C69       1.0  0.3026  0.3395  0.3365999999999999  1.0000
  H   H29       1.0  0.24249999999999997  0.3476  0.3075  1.0000
  C   C70       1.0  0.2811  0.3092  0.4182  1.0000
  C   C71       1.0  0.4485000000000001  0.1467  0.4997  1.0000
  H   H30       1.0  0.3434  0.1243  0.4987999999999999  1.0000
  C   C72       1.0  0.4958  0.3413  0.3429999999999999  1.0000
  C   C73       1.0  0.34620000000000006  0.0048  0.3096  1.0000
  C   C74       1.0  0.2021  0.3262  0.5008  1.0000
  H   H31       1.0  0.3065  0.3488  0.5021  1.0000
  C   C75       1.0  0.4683  0.1476  0.6272  1.0000
  H   H32       1.0  0.6011  0.1475  0.6307  1.0000
  C   C76       1.0  0.3631  0.1329  0.6643  1.0000
  H   H33       1.0  0.425  0.1228  0.6926999999999999  1.0000
  C   C77       1.0  0.0776  0.1482  0.6177  1.0000
  H   H34       1.0  0.9446000000000002  0.1482  0.6148999999999999  1.0000
  C   C78       1.0  0.3683  0.40469999999999995  0.6303999999999998  1.0000
  H   H35       1.0  0.4944  0.4083  0.6418  1.0000
  C   C79       1.0  0.5801000000000001  0.3219  0.3857  1.0000
  H   H36       1.0  0.7126  0.3185  0.3881  1.0000
  C   C80       1.0  0.1618  0.2967  0.46069999999999994  1.0000
  C   C81       1.0  0.3218  0.11120000000000001  0.4013  1.0000
  H   H37       1.0  0.2316  0.1342  0.4127  1.0000
  C   C82       1.0  0.999  0.393  0.5983  1.0000
  H   H38       1.0  0.8718  0.38900000000000007  0.5879  1.0000
  C   C83       1.0  0.6431  0.0799  0.40029999999999993  1.0000
  H   H39       1.0  0.7693  0.08170000000000001  0.4121  1.0000
  C   C84       1.0  0.4808  0.3081  0.42299999999999993  1.0000
  H   H40       1.0  0.5429  0.2979  0.45129999999999987  1.0000
  C   C85       1.0  0.17989999999999995  0.1635  0.5796999999999998  1.0000
  H   H41       1.0  0.1152  0.1739  0.5518  1.0000
  C   C86       1.0  0.5935  0.044000000000000004  0.364  1.0000
  H   H42       1.0  0.6847  0.0216  0.3523  1.0000
  C   C87       1.0  0.32670000000000005  0.3686  0.5969  1.0000
  H   H43       1.0  0.4245  0.3485  0.5849999999999999  1.0000
  C   C88       1.0  0.2668  0.0757  0.3666  1.0000
  H   H44       1.0  0.1389  0.073  0.3563  1.0000
  Mn  Mn5       1.0  0.7994  0.06932  0.75166  1.0000
  Mn  Mn6       1.0  0.3463100000000001  0.46668  0.26467  1.0000
  O   O17       1.0  0.1219  0.41589999999999994  0.23175  1.0000
  O   O18       1.0  0.5322999999999999  0.10171999999999999  0.7776699999999998  1.0000
  O   O19       1.0  0.46079999999999993  0.52743  0.7936999999999997  1.0000
  O   O20       1.0  0.8757  0.3785  0.19593999999999998  1.0000
  O   O21       1.0  0.7917000000000001  0.1356  0.8113299999999998  1.0000
  O   O22       1.0  0.1667  0.98501  0.19162999999999994  1.0000
  C   C89       1.0  0.009300000000000011  0.2407  0.9584  1.0000
  C   C90       1.0  0.9374  0.2138  0.0413  1.0000
  O   O23       1.0  0.4573  0.0205  0.1986  1.0000
  C   C91       1.0  0.6446  0.2874  0.0418  1.0000
  O   O24       1.0  0.17160000000000003  0.49739999999999995  0.79692  1.0000
  C   C92       1.0  0.7159000000000001  0.3132  0.9578  1.0000
  C   C93       1.0  0.9037000000000001  0.2464  0.9995  1.0000
  C   C94       1.0  0.6158  0.1318  0.8092  1.0000
  C   C95       1.0  0.754  0.2824  0.0009999999999999998  1.0000
  C   C96       1.0  0.2861  0.0204  0.1834  1.0000
  C   C97       1.0  0.492  0.3251  0.03899999999999999  1.0000
  C   C98       1.0  0.051299999999999985  0.3879  0.19879999999999995  1.0000
  C   C99       1.0  0.1688  0.3672  0.1604  1.0000
  C   C100      1.0  0.98  0.2728  0.9177  1.0000
  H   H45       1.0  0.05979999999999996  0.2703  0.8923999999999997  1.0000
  C   C101      1.0  0.6724000000000001  0.2563  0.0836  1.0000
  H   H46       1.0  0.5964  0.2601  0.1095  1.0000
  C   C102      1.0  0.557  0.3492  0.9618  1.0000
  C   C103      1.0  0.8175  0.3106  0.9168  1.0000
  H   H47       1.0  0.786  0.33120000000000005  0.8904  1.0000
  C   C104      1.0  0.19549999999999995  0.1752  0.8756999999999998  1.0000
  H   H48       1.0  0.0626  0.1743  0.8725  1.0000
  C   C105      1.0  0.13839999999999997  0.1391  0.07959999999999998  1.0000
  C   C106      1.0  0.378  0.3365  0.08249999999999998  1.0000
  C   C107      1.0  0.40870000000000006  0.4572  0.8464  1.0000
  C   C108      1.0  0.0897  0.17780000000000004  0.0383  1.0000
  C   C109      1.0  0.5053  0.3866  0.9192  1.0000
  C   C110      1.0  0.04710000000000001  0.0689  0.1323  1.0000
  H   H49       1.0  0.9518  0.04760000000000001  0.1437  1.0000
  C   C111      1.0  0.8337  0.2169  0.0829  1.0000
  H   H50       1.0  0.8635  0.1955  0.1089  1.0000
  C   C112      1.0  0.22719999999999999  0.0627  0.14879999999999993  1.0000
  C   C113      1.0  0.3026  0.1605  0.8365999999999998  1.0000
  H   H51       1.0  0.24250000000000002  0.1524  0.8075  1.0000
  C   C114      1.0  0.2811  0.1908  0.9182  1.0000
  C   C115      1.0  0.4485000000000001  0.3533  0.9997  1.0000
  H   H52       1.0  0.3434  0.3757  0.9987999999999998  1.0000
  C   C116      1.0  0.4958  0.1587  0.8429999999999997  1.0000
  C   C117      1.0  0.34619999999999995  0.49520000000000003  0.8095999999999999  1.0000
  C   C118      1.0  0.2021  0.1738  0.0008  1.0000
  H   H53       1.0  0.3065  0.1512  0.0021  1.0000
  C   C119      1.0  0.4683  0.3524  0.12719999999999998  1.0000
  H   H54       1.0  0.6011  0.3525  0.1307  1.0000
  C   C120      1.0  0.3631  0.3671  0.1643  1.0000
  H   H55       1.0  0.425  0.3772  0.19269999999999998  1.0000
  C   C121      1.0  0.0776  0.3518  0.11769999999999997  1.0000
  H   H56       1.0  0.9446000000000002  0.3518  0.1149  1.0000
  C   C122      1.0  0.3683  0.0953  0.1304  1.0000
  H   H57       1.0  0.4944  0.09169999999999999  0.1418  1.0000
  C   C123      1.0  0.5801000000000001  0.1781  0.8857  1.0000
  H   H58       1.0  0.7126  0.1815  0.8881  1.0000
  C   C124      1.0  0.1618  0.2033  0.9607  1.0000
  C   C125      1.0  0.3218  0.3888  0.9013  1.0000
  H   H59       1.0  0.2316  0.3658  0.9127  1.0000
  C   C126      1.0  0.999  0.107  0.0983  1.0000
  H   H60       1.0  0.8718  0.11099999999999999  0.08789999999999999  1.0000
  C   C127      1.0  0.6431  0.4201  0.9002999999999998  1.0000
  H   H61       1.0  0.7693  0.4183  0.9120999999999998  1.0000
  C   C128      1.0  0.48080000000000006  0.1919  0.923  1.0000
  H   H62       1.0  0.5429  0.2021  0.9512999999999999  1.0000
  C   C129      1.0  0.1799  0.3365  0.0797  1.0000
  H   H63       1.0  0.1152  0.32609999999999995  0.051799999999999985  1.0000
  C   C130      1.0  0.5935  0.456  0.8639999999999998  1.0000
  H   H64       1.0  0.6847  0.4784  0.8522999999999997  1.0000
  C   C131      1.0  0.32670000000000005  0.1314  0.0969  1.0000
  H   H65       1.0  0.4245  0.1515  0.085  1.0000
  C   C132      1.0  0.2668  0.4243  0.8665999999999998  1.0000
  H   H66       1.0  0.1389  0.42699999999999994  0.8562999999999998  1.0000
  Mn  Mn7       1.0  0.20059999999999997  0.56932  0.7483399999999998  1.0000
  Mn  Mn8       1.0  0.65369  0.9666799999999999  0.23533  1.0000
  O   O25       1.0  0.8781  0.9159  0.26825  1.0000
  O   O26       1.0  0.46770000000000006  0.60172  0.72233  1.0000
  O   O27       1.0  0.5392  0.027429999999999996  0.7063  1.0000
  O   O28       1.0  0.1243  0.8784999999999998  0.3040599999999999  1.0000
  O   O29       1.0  0.2083  0.6356000000000002  0.68867  1.0000
  O   O30       1.0  0.8333  0.48501  0.30837  1.0000
  C   C133      1.0  0.9907  0.7407  0.5416  1.0000
  C   C134      1.0  0.06259999999999998  0.7138  0.45869999999999994  1.0000
  O   O31       1.0  0.5427  0.5205  0.3014  1.0000
  C   C135      1.0  0.35540000000000005  0.7874  0.4582  1.0000
  O   O32       1.0  0.8284  0.9974  0.7030799999999998  1.0000
  C   C136      1.0  0.2841  0.8132  0.5422  1.0000
  C   C137      1.0  0.0963  0.7464  0.5005  1.0000
  C   C138      1.0  0.3842  0.6318  0.6908  1.0000
  C   C139      1.0  0.246  0.7824  0.49899999999999994  1.0000
  C   C140      1.0  0.7139  0.5204  0.3166  1.0000
  C   C141      1.0  0.508  0.8250999999999998  0.461  1.0000
  C   C142      1.0  0.9486999999999999  0.8879  0.3012  1.0000
  C   C143      1.0  0.8312  0.8672000000000001  0.3396  1.0000
  C   C144      1.0  0.019999999999999945  0.7728  0.5822999999999998  1.0000
  H   H67       1.0  0.9402  0.7703  0.6076  1.0000
  C   C145      1.0  0.3276  0.7563  0.4163999999999999  1.0000
  H   H68       1.0  0.40359999999999996  0.7601  0.3904999999999999  1.0000
  C   C146      1.0  0.443  0.8492  0.5382  1.0000
  C   C147      1.0  0.1825  0.8106  0.5832  1.0000
  H   H69       1.0  0.21399999999999997  0.8312  0.6095999999999998  1.0000
  C   C148      1.0  0.8045  0.6752  0.6243  1.0000
  H   H70       1.0  0.9374  0.6743  0.6274999999999997  1.0000
  C   C149      1.0  0.8616  0.6391  0.42039999999999994  1.0000
  C   C150      1.0  0.622  0.8365  0.4175  1.0000
  C   C151      1.0  0.5913  0.9572  0.6535999999999997  1.0000
  C   C152      1.0  0.9103  0.6778  0.4617  1.0000
  C   C153      1.0  0.49469999999999986  0.8866  0.5807999999999998  1.0000
  C   C154      1.0  0.9529  0.5689  0.3676999999999999  1.0000
  H   H71       1.0  0.0482  0.5476  0.3563  1.0000
  C   C155      1.0  0.16629999999999998  0.7169  0.4170999999999999  1.0000
  H   H72       1.0  0.1365  0.6955  0.3910999999999999  1.0000
  C   C156      1.0  0.7728  0.5627  0.3512  1.0000
  C   C157      1.0  0.6974  0.6605  0.6634  1.0000
  H   H73       1.0  0.7574999999999997  0.6524  0.6924999999999998  1.0000
  C   C158      1.0  0.7189  0.6907999999999999  0.5818  1.0000
  C   C159      1.0  0.5515  0.8532999999999998  0.5003  1.0000
  H   H74       1.0  0.6566  0.8757  0.5012  1.0000
  C   C160      1.0  0.5042  0.6587  0.657  1.0000
  C   C161      1.0  0.6538  0.9952  0.6904  1.0000
  C   C162      1.0  0.7979  0.6738  0.4992  1.0000
  H   H75       1.0  0.6935  0.6512  0.4979  1.0000
  C   C163      1.0  0.5317  0.8523999999999999  0.3728  1.0000
  H   H76       1.0  0.3989  0.8525  0.3693  1.0000
  C   C164      1.0  0.6369  0.8671  0.3357  1.0000
  H   H77       1.0  0.575  0.8772  0.3072999999999999  1.0000
  C   C165      1.0  0.9224000000000001  0.8518  0.3823  1.0000
  H   H78       1.0  0.0554  0.8518  0.3851  1.0000
  C   C166      1.0  0.6317  0.5953  0.3695999999999999  1.0000
  H   H79       1.0  0.5056  0.5917  0.3582  1.0000
  C   C167      1.0  0.4199  0.6780999999999999  0.6143  1.0000
  H   H80       1.0  0.2874  0.6815  0.6119  1.0000
  C   C168      1.0  0.8382  0.7032999999999999  0.5393  1.0000
  C   C169      1.0  0.6782  0.8888  0.5987  1.0000
  H   H81       1.0  0.7684  0.8657999999999999  0.5873  1.0000
  C   C170      1.0  0.0010000000000000044  0.607  0.4017  1.0000
  H   H82       1.0  0.12820000000000006  0.611  0.4121  1.0000
  C   C171      1.0  0.3569  0.9201  0.5997  1.0000
  H   H83       1.0  0.2307  0.9183000000000001  0.5879  1.0000
  C   C172      1.0  0.5192  0.6919  0.5769999999999997  1.0000
  H   H84       1.0  0.4571  0.7021  0.5487  1.0000
  C   C173      1.0  0.8201  0.8365  0.4202999999999999  1.0000
  H   H85       1.0  0.8847999999999999  0.8261  0.4481999999999999  1.0000
  C   C174      1.0  0.4065  0.956  0.636  1.0000
  H   H86       1.0  0.3153  0.9783999999999999  0.6477  1.0000
  C   C175      1.0  0.6733  0.6314000000000001  0.4031  1.0000
  H   H87       1.0  0.5755  0.6514999999999999  0.41499999999999987  1.0000
  C   C176      1.0  0.7332  0.9243000000000001  0.6334  1.0000
  H   H88       1.0  0.8611  0.927  0.6437  1.0000
