data_image0
_chemical_formula_structural       SmC3HCHC2HCHC2HC2HC2HC2O6SmC3HCHC2HCHC2HC2HC2HC2O6SmC3HCHC2HCHC2HC2HC2HC2O6SmC3HCHC2HCHC2HC2HC2HC2O6SmC3HCHC2HCHC2HC2HC2HC2O6SmC3HCHC2HCHC2HC2HC2HC2O6SmC3HCHC2HCHC2HC2HC2HC2O6SmC3HCHC2HCHC2HC2HC2HC2O6
_chemical_formula_sum              "Sm8 C120 H56 O48"
_cell_length_a       24.8112
_cell_length_b       13.7461
_cell_length_c       13.6627
_cell_angle_alpha    90.0
_cell_angle_beta     99.15299999999999
_cell_angle_gamma    90.0

_symmetry_space_group_name_H-M    'P 1'
_symmetry_Int_Tables_number       1

loop_
  _symmetry_equiv_pos_as_xyz
  'x,y,z'

loop_
  _atom_site_type_symbol
  _atom_site_label
  _atom_site_symmetry_multiplicity
  _atom_site_fract_x
  _atom_site_fract_y
  _atom_site_fract_z
  _atom_site_occupancy
  Sm  Sm1       1.0  0.17023  0.21548  0.4610400000000001  1.0000
  C   C1        1.0  0.07530000000000002  0.28048  0.53748  1.0000
  C   C2        1.0  0.02402  0.31182  0.57474  1.0000
  C   C3        1.0  0.98578  0.2436  0.5932  1.0000
  H   H1        1.0  0.9932  0.1776  0.5886000000000001  1.0000
  C   C4        1.0  0.9362900000000001  0.2737  0.6185  1.0000
  H   H2        1.0  0.9107000000000001  0.2272  0.6298  1.0000
  C   C5        1.0  0.9241  0.37206000000000006  0.62747  1.0000
  C   C6        1.0  0.96322  0.4398  0.6107000000000002  1.0000
  H   H3        1.0  0.9564000000000002  0.506  0.6157  1.0000
  C   C7        1.0  0.012690000000000019  0.408  0.5862000000000003  1.0000
  H   H4        1.0  0.03900000000000001  0.4539  0.5774000000000001  1.0000
  C   C8        1.0  0.86936  0.39993  0.65019  1.0000
  C   C9        1.0  0.84619  0.34657  0.71914  1.0000
  H   H5        1.0  0.8668  0.2982000000000001  0.7550000000000002  1.0000
  C   C10       1.0  0.7933500000000001  0.36301000000000005  0.7363000000000002  1.0000
  C   C11       1.0  0.7618800000000001  0.43346000000000007  0.6799700000000001  1.0000
  H   H6        1.0  0.7254  0.4421  0.6864000000000002  1.0000
  C   C12       1.0  0.78562  0.49103  0.6137100000000002  1.0000
  C   C13       1.0  0.8388600000000003  0.47529  0.6003600000000001  1.0000
  H   H7        1.0  0.8546000000000002  0.5153  0.5578  1.0000
  C   C14       1.0  0.7712900000000001  0.30712  0.81685  1.0000
  C   C15       1.0  0.75078  0.5697  0.55873  1.0000
  O   O1        1.0  0.10696  0.34308  0.51399  1.0000
  O   O2        1.0  0.08439  0.18995  0.52822  1.0000
  O   O3        1.0  0.77273  0.64462  0.53041  1.0000
  O   O4        1.0  0.6996300000000004  0.55892  0.54345  1.0000
  O   O5        1.0  0.7230600000000003  0.32743  0.8301100000000002  1.0000
  O   O6        1.0  0.8019100000000001  0.24671  0.86404  1.0000
  Sm  Sm2       1.0  0.67023  0.71548  0.4610400000000001  1.0000
  C   C16       1.0  0.5753  0.78048  0.53748  1.0000
  C   C17       1.0  0.52402  0.81182  0.57474  1.0000
  C   C18       1.0  0.48578  0.7436  0.5932  1.0000
  H   H8        1.0  0.49320000000000014  0.6776000000000001  0.5886000000000001  1.0000
  C   C19       1.0  0.43629  0.7737  0.6185  1.0000
  H   H9        1.0  0.4107  0.7272  0.6298  1.0000
  C   C20       1.0  0.4241  0.87206  0.62747  1.0000
  C   C21       1.0  0.46322000000000013  0.9398  0.6107000000000002  1.0000
  H   H10       1.0  0.4563999999999999  0.006  0.6157  1.0000
  C   C22       1.0  0.51269  0.908  0.5862000000000003  1.0000
  H   H11       1.0  0.539  0.9539  0.5774000000000001  1.0000
  C   C23       1.0  0.36936  0.8999300000000001  0.65019  1.0000
  C   C24       1.0  0.34619  0.84657  0.71914  1.0000
  H   H12       1.0  0.3668  0.7982  0.7550000000000002  1.0000
  C   C25       1.0  0.29335  0.86301  0.7363000000000002  1.0000
  C   C26       1.0  0.26188  0.93346  0.6799700000000001  1.0000
  H   H13       1.0  0.22540000000000002  0.9421  0.6864000000000002  1.0000
  C   C27       1.0  0.28562000000000004  0.99103  0.6137100000000002  1.0000
  C   C28       1.0  0.33886  0.9752900000000002  0.6003600000000001  1.0000
  H   H14       1.0  0.3546000000000001  0.0153  0.5578  1.0000
  C   C29       1.0  0.27129000000000003  0.80712  0.81685  1.0000
  C   C30       1.0  0.25078  0.0697  0.55873  1.0000
  O   O7        1.0  0.60696  0.84308  0.51399  1.0000
  O   O8        1.0  0.58439  0.68995  0.52822  1.0000
  O   O9        1.0  0.27273  0.14462  0.53041  1.0000
  O   O10       1.0  0.19963000000000003  0.05892  0.54345  1.0000
  O   O11       1.0  0.22306000000000004  0.82743  0.8301100000000002  1.0000
  O   O12       1.0  0.30191  0.74671  0.86404  1.0000
  Sm  Sm3       1.0  0.8297700000000001  0.21548  0.038960000000000015  1.0000
  C   C31       1.0  0.9247000000000001  0.28048  0.9625200000000003  1.0000
  C   C32       1.0  0.97598  0.31182  0.92526  1.0000
  C   C33       1.0  0.014220000000000017  0.2436  0.9068000000000003  1.0000
  H   H15       1.0  0.0068000000000000005  0.1776  0.9114  1.0000
  C   C34       1.0  0.06371000000000002  0.2737  0.8815000000000002  1.0000
  H   H16       1.0  0.08930000000000002  0.2272  0.8702000000000001  1.0000
  C   C35       1.0  0.07590000000000001  0.37206000000000006  0.8725300000000001  1.0000
  C   C36       1.0  0.03678  0.4398  0.8893  1.0000
  H   H17       1.0  0.04360000000000003  0.506  0.8843000000000002  1.0000
  C   C37       1.0  0.98731  0.408  0.9138000000000001  1.0000
  H   H18       1.0  0.961  0.4539  0.9226  1.0000
  C   C38       1.0  0.13064  0.39993  0.8498100000000002  1.0000
  C   C39       1.0  0.15381000000000003  0.34657  0.7808600000000002  1.0000
  H   H19       1.0  0.1332  0.2982000000000001  0.745  1.0000
  C   C40       1.0  0.20665000000000003  0.36301000000000005  0.7637  1.0000
  C   C41       1.0  0.23812  0.43346000000000007  0.82003  1.0000
  H   H20       1.0  0.2746  0.4421  0.8136  1.0000
  C   C42       1.0  0.21438  0.49103  0.88629  1.0000
  C   C43       1.0  0.16114  0.47529  0.89964  1.0000
  H   H21       1.0  0.1454  0.5153  0.9422  1.0000
  C   C44       1.0  0.22871  0.30712  0.6831500000000003  1.0000
  C   C45       1.0  0.24922  0.5697  0.94127  1.0000
  O   O13       1.0  0.89304  0.34308  0.98601  1.0000
  O   O14       1.0  0.9156100000000003  0.18995  0.9717800000000002  1.0000
  O   O15       1.0  0.22727000000000003  0.64462  0.9695900000000002  1.0000
  O   O16       1.0  0.30037  0.55892  0.9565500000000002  1.0000
  O   O17       1.0  0.27694  0.32743  0.6698900000000002  1.0000
  O   O18       1.0  0.19809  0.24671  0.6359600000000002  1.0000
  Sm  Sm4       1.0  0.32977  0.71548  0.038960000000000015  1.0000
  C   C46       1.0  0.4247  0.78048  0.9625200000000003  1.0000
  C   C47       1.0  0.47598  0.81182  0.92526  1.0000
  C   C48       1.0  0.51422  0.7436  0.9068000000000003  1.0000
  H   H22       1.0  0.5068  0.6776000000000001  0.9114  1.0000
  C   C49       1.0  0.56371  0.7737  0.8815000000000002  1.0000
  H   H23       1.0  0.5893  0.7272  0.8702000000000001  1.0000
  C   C50       1.0  0.5759  0.87206  0.8725300000000001  1.0000
  C   C51       1.0  0.53678  0.9398  0.8893  1.0000
  H   H24       1.0  0.5436  0.006  0.8843000000000002  1.0000
  C   C52       1.0  0.48731  0.908  0.9138000000000001  1.0000
  H   H25       1.0  0.461  0.9539  0.9226  1.0000
  C   C53       1.0  0.63064  0.8999300000000001  0.8498100000000002  1.0000
  C   C54       1.0  0.65381  0.84657  0.7808600000000002  1.0000
  H   H26       1.0  0.6332  0.7982  0.745  1.0000
  C   C55       1.0  0.70665  0.86301  0.7637  1.0000
  C   C56       1.0  0.73812  0.93346  0.82003  1.0000
  H   H27       1.0  0.7746  0.9421  0.8136  1.0000
  C   C57       1.0  0.71438  0.99103  0.88629  1.0000
  C   C58       1.0  0.66114  0.9752900000000002  0.89964  1.0000
  H   H28       1.0  0.6454  0.0153  0.9422  1.0000
  C   C59       1.0  0.72871  0.80712  0.6831500000000003  1.0000
  C   C60       1.0  0.7492200000000001  0.0697  0.94127  1.0000
  O   O19       1.0  0.39304  0.84308  0.98601  1.0000
  O   O20       1.0  0.41561  0.68995  0.9717800000000002  1.0000
  O   O21       1.0  0.72727  0.14462  0.9695900000000002  1.0000
  O   O22       1.0  0.80037  0.05892  0.9565500000000002  1.0000
  O   O23       1.0  0.77694  0.82743  0.6698900000000002  1.0000
  O   O24       1.0  0.69809  0.74671  0.6359600000000002  1.0000
  Sm  Sm5       1.0  0.8297700000000001  0.78452  0.53896  1.0000
  C   C61       1.0  0.9247000000000001  0.71952  0.4625200000000001  1.0000
  C   C62       1.0  0.97598  0.68818  0.42526  1.0000
  C   C63       1.0  0.01422  0.7564000000000001  0.4068  1.0000
  H   H29       1.0  0.006799999999999996  0.8224  0.4114  1.0000
  C   C64       1.0  0.06371  0.7263  0.3815000000000001  1.0000
  H   H30       1.0  0.0893  0.7728  0.3702  1.0000
  C   C65       1.0  0.0759  0.6279400000000003  0.37253  1.0000
  C   C66       1.0  0.03678  0.5602  0.3893  1.0000
  H   H31       1.0  0.0436  0.49400000000000005  0.3843  1.0000
  C   C67       1.0  0.98731  0.592  0.4138000000000001  1.0000
  H   H32       1.0  0.961  0.5461  0.4226  1.0000
  C   C68       1.0  0.13064  0.60007  0.34981  1.0000
  C   C69       1.0  0.15381000000000006  0.65343  0.28086000000000005  1.0000
  H   H33       1.0  0.1332  0.7018  0.245  1.0000
  C   C70       1.0  0.20665000000000003  0.63699  0.2637  1.0000
  C   C71       1.0  0.23812  0.56654  0.32003  1.0000
  H   H34       1.0  0.2746  0.5579  0.3136  1.0000
  C   C72       1.0  0.21438  0.50897  0.3862900000000001  1.0000
  C   C73       1.0  0.16114000000000003  0.52471  0.3996400000000001  1.0000
  H   H35       1.0  0.1454  0.4847000000000001  0.4422000000000001  1.0000
  C   C74       1.0  0.22871  0.69288  0.18315000000000006  1.0000
  C   C75       1.0  0.24922  0.4303  0.4412700000000001  1.0000
  O   O25       1.0  0.89304  0.6569200000000001  0.4860100000000001  1.0000
  O   O26       1.0  0.9156100000000001  0.81005  0.4717800000000001  1.0000
  O   O27       1.0  0.22727  0.35538  0.46959  1.0000
  O   O28       1.0  0.30037  0.44108  0.4565500000000001  1.0000
  O   O29       1.0  0.27694  0.67257  0.16989000000000007  1.0000
  O   O30       1.0  0.19809  0.75329  0.13596  1.0000
  Sm  Sm6       1.0  0.32977  0.28452  0.53896  1.0000
  C   C76       1.0  0.4247  0.21952000000000005  0.4625200000000001  1.0000
  C   C77       1.0  0.47598  0.18818  0.42526  1.0000
  C   C78       1.0  0.51422  0.2564  0.4068  1.0000
  H   H36       1.0  0.5068  0.3224  0.4114  1.0000
  C   C79       1.0  0.56371  0.22630000000000006  0.3815000000000001  1.0000
  H   H37       1.0  0.5893  0.2728  0.3702  1.0000
  C   C80       1.0  0.5759  0.12794  0.37253  1.0000
  C   C81       1.0  0.53678  0.06020000000000001  0.3893  1.0000
  H   H38       1.0  0.5436  0.9940000000000002  0.3843  1.0000
  C   C82       1.0  0.48731  0.092  0.4138000000000001  1.0000
  H   H39       1.0  0.461  0.0461  0.4226  1.0000
  C   C83       1.0  0.63064  0.10007  0.34981  1.0000
  C   C84       1.0  0.65381  0.15343  0.28086000000000005  1.0000
  H   H40       1.0  0.6332  0.20180000000000003  0.245  1.0000
  C   C85       1.0  0.70665  0.13699  0.2637  1.0000
  C   C86       1.0  0.73812  0.06654  0.32003  1.0000
  H   H41       1.0  0.7746  0.0579  0.3136  1.0000
  C   C87       1.0  0.71438  0.00897  0.3862900000000001  1.0000
  C   C88       1.0  0.66114  0.02471  0.3996400000000001  1.0000
  H   H42       1.0  0.6454  0.9847  0.4422000000000001  1.0000
  C   C89       1.0  0.72871  0.19288  0.18315000000000006  1.0000
  C   C90       1.0  0.7492200000000001  0.9303000000000002  0.4412700000000001  1.0000
  O   O31       1.0  0.39304  0.15692  0.4860100000000001  1.0000
  O   O32       1.0  0.41561  0.31005  0.4717800000000001  1.0000
  O   O33       1.0  0.72727  0.8553800000000001  0.46959  1.0000
  O   O34       1.0  0.80037  0.94108  0.4565500000000001  1.0000
  O   O35       1.0  0.77694  0.17257  0.16989000000000007  1.0000
  O   O36       1.0  0.69809  0.25329  0.13596  1.0000
  Sm  Sm7       1.0  0.17023  0.78452  0.96104  1.0000
  C   C91       1.0  0.0753  0.71952  0.03748000000000001  1.0000
  C   C92       1.0  0.02402  0.68818  0.07474  1.0000
  C   C93       1.0  0.98578  0.7564000000000001  0.0932  1.0000
  H   H43       1.0  0.9932  0.8224  0.08860000000000003  1.0000
  C   C94       1.0  0.9362900000000001  0.7263  0.11850000000000002  1.0000
  H   H44       1.0  0.9107000000000001  0.7728  0.1298  1.0000
  C   C95       1.0  0.9241  0.6279400000000003  0.12747000000000003  1.0000
  C   C96       1.0  0.96322  0.5602  0.1107  1.0000
  H   H45       1.0  0.9564000000000002  0.49400000000000005  0.11570000000000003  1.0000
  C   C97       1.0  0.012690000000000002  0.592  0.08620000000000003  1.0000
  H   H46       1.0  0.039  0.5461  0.07740000000000001  1.0000
  C   C98       1.0  0.86936  0.60007  0.15019  1.0000
  C   C99       1.0  0.84619  0.65343  0.21914  1.0000
  H   H47       1.0  0.8668  0.7018  0.25500000000000006  1.0000
  C   C100      1.0  0.7933500000000001  0.63699  0.23630000000000007  1.0000
  C   C101      1.0  0.7618800000000001  0.56654  0.17997000000000005  1.0000
  H   H48       1.0  0.7254  0.5579  0.1864  1.0000
  C   C102      1.0  0.78562  0.50897  0.11371  1.0000
  C   C103      1.0  0.8388600000000002  0.52471  0.10036  1.0000
  H   H49       1.0  0.8546000000000002  0.4847000000000001  0.05780000000000001  1.0000
  C   C104      1.0  0.7712900000000001  0.69288  0.31685  1.0000
  C   C105      1.0  0.75078  0.4303  0.05873  1.0000
  O   O37       1.0  0.10696  0.6569200000000001  0.013990000000000004  1.0000
  O   O38       1.0  0.08439  0.81005  0.02822  1.0000
  O   O39       1.0  0.77273  0.35538  0.030410000000000006  1.0000
  O   O40       1.0  0.69963  0.44108  0.04345  1.0000
  O   O41       1.0  0.7230600000000001  0.67257  0.33011  1.0000
  O   O42       1.0  0.8019100000000001  0.75329  0.36404000000000003  1.0000
  Sm  Sm8       1.0  0.67023  0.28452  0.96104  1.0000
  C   C106      1.0  0.5753  0.21952000000000005  0.03748000000000001  1.0000
  C   C107      1.0  0.52402  0.18818  0.07474  1.0000
  C   C108      1.0  0.48578  0.2564  0.0932  1.0000
  H   H50       1.0  0.49320000000000014  0.3224  0.08860000000000003  1.0000
  C   C109      1.0  0.43629  0.22630000000000006  0.11850000000000002  1.0000
  H   H51       1.0  0.4107  0.2728  0.1298  1.0000
  C   C110      1.0  0.4241  0.12794  0.12747000000000003  1.0000
  C   C111      1.0  0.4632200000000001  0.06020000000000001  0.1107  1.0000
  H   H52       1.0  0.45640000000000003  0.9940000000000002  0.11570000000000003  1.0000
  C   C112      1.0  0.51269  0.092  0.08620000000000003  1.0000
  H   H53       1.0  0.539  0.0461  0.07740000000000001  1.0000
  C   C113      1.0  0.36936  0.10007  0.15019  1.0000
  C   C114      1.0  0.34619  0.15343  0.21914  1.0000
  H   H54       1.0  0.3668  0.20180000000000003  0.25500000000000006  1.0000
  C   C115      1.0  0.29335  0.13699  0.23630000000000007  1.0000
  C   C116      1.0  0.26188000000000006  0.06654  0.17997000000000005  1.0000
  H   H55       1.0  0.2254  0.0579  0.1864  1.0000
  C   C117      1.0  0.28562  0.00897  0.11371  1.0000
  C   C118      1.0  0.33886  0.02471  0.10036  1.0000
  H   H56       1.0  0.3546000000000001  0.9847  0.05780000000000001  1.0000
  C   C119      1.0  0.27129  0.19288  0.31685  1.0000
  C   C120      1.0  0.25078  0.9303000000000002  0.05873  1.0000
  O   O43       1.0  0.60696  0.15692  0.013990000000000004  1.0000
  O   O44       1.0  0.58439  0.31005  0.02822  1.0000
  O   O45       1.0  0.27273  0.8553800000000001  0.030410000000000006  1.0000
  O   O46       1.0  0.19963000000000003  0.94108  0.04345  1.0000
  O   O47       1.0  0.22306  0.17257  0.33011  1.0000
  O   O48       1.0  0.30191000000000007  0.25329  0.36404000000000003  1.0000
