data_image0
_chemical_formula_structural       C3HC2HC2HCH2C2HCHCNHO4ZnC3HC2HC2HCH2C2HCHCNHO4ZnC3HC2HC2HCH2C2HCHCNHO4ZnC3HC2HC2HCH2C2HCHCNHO4ZnC3HC2HC2HCH2C2HCHCNHO4ZnC3HC2HC2HCH2C2HCHCNHO4ZnC3HC2HC2HCH2C2HCHCNHO4ZnC3HC2HC2HCH2C2HCHCNHO4Zn
_chemical_formula_sum              "C96 H64 N8 O32 Zn8"
_cell_length_a       21.751
_cell_length_b       9.389
_cell_length_c       17.03
_cell_angle_alpha    90.0
_cell_angle_beta     109.96500000000002
_cell_angle_gamma    90.0

_space_group_name_H-M_alt    "P 1"
_space_group_IT_number       1

loop_
  _space_group_symop_operation_xyz
  'x, y, z'

loop_
  _atom_site_type_symbol
  _atom_site_label
  _atom_site_symmetry_multiplicity
  _atom_site_fract_x
  _atom_site_fract_y
  _atom_site_fract_z
  _atom_site_occupancy
  C   C1        1.0  0.41209  0.8686000000000001  0.26501  1.0000
  C   C2        1.0  0.36918999999999996  0.9717300000000001  0.28918  1.0000
  C   C3        1.0  0.38994  0.0261  0.36985  1.0000
  H   H1        1.0  0.4288  0.9948  0.4093000000000001  1.0000
  C   C4        1.0  0.3515799999999999  0.1282  0.39087  1.0000
  C   C5        1.0  0.29297  0.17090000000000005  0.33289  1.0000
  H   H2        1.0  0.2675  0.23780000000000004  0.3481  1.0000
  C   C6        1.0  0.27081  0.1155  0.2512  1.0000
  C   C7        1.0  0.31040999999999996  0.0166  0.22969000000000006  1.0000
  H   H3        1.0  0.2976  0.9805000000000001  0.1756  1.0000
  C   C8        1.0  0.18688  0.1182  0.10846  1.0000
  H   H4        1.0  0.1408  0.1425  0.08580000000000003  1.0000
  H   H5        1.0  0.1902  0.0155  0.1051  1.0000
  C   C9        1.0  0.22102  0.1853  0.05366  1.0000
  C   C10       1.0  0.23769  0.1056  0.99535  1.0000
  H   H6        1.0  0.22969999999999996  0.0081  0.9916000000000003  1.0000
  C   C11       1.0  0.23388999999999996  0.3312  0.05744000000000001  1.0000
  H   H7        1.0  0.22319999999999998  0.38700000000000007  0.096  1.0000
  C   C12       1.0  0.3748099999999999  0.1933  0.47691  1.0000
  N   N1        1.0  0.21148  0.159  0.19580000000000006  1.0000
  H   H8        1.0  0.18759999999999996  0.2136  0.214  1.0000
  O   O1        1.0  0.39527  0.83706  0.18933  1.0000
  O   O2        1.0  0.45951999999999993  0.8179  0.32008  1.0000
  O   O3        1.0  0.42954  0.1476  0.52605  1.0000
  O   O4        1.0  0.34285000000000004  0.2852  0.49675000000000014  1.0000
  Zn  Zn1       1.0  0.44856  0.75236  0.13075  1.0000
  C   C13       1.0  0.91209  0.3686000000000001  0.26501  1.0000
  C   C14       1.0  0.86919  0.47173  0.28918  1.0000
  C   C15       1.0  0.88994  0.5261  0.36985  1.0000
  H   H9        1.0  0.9287999999999997  0.4948  0.4093000000000001  1.0000
  C   C16       1.0  0.8515799999999998  0.6282000000000001  0.39087  1.0000
  C   C17       1.0  0.79297  0.6709  0.33289  1.0000
  H   H10       1.0  0.7675  0.7378  0.3481  1.0000
  C   C18       1.0  0.77081  0.6155  0.2512  1.0000
  C   C19       1.0  0.8104099999999999  0.5166  0.22969000000000006  1.0000
  H   H11       1.0  0.7976  0.48050000000000004  0.1756  1.0000
  C   C20       1.0  0.68688  0.6182000000000002  0.10846  1.0000
  H   H12       1.0  0.6408  0.6425000000000002  0.08580000000000003  1.0000
  H   H13       1.0  0.6902  0.5155  0.1051  1.0000
  C   C21       1.0  0.72102  0.6853  0.05366  1.0000
  C   C22       1.0  0.73769  0.6056  0.99535  1.0000
  H   H14       1.0  0.7296999999999999  0.5081  0.9916000000000003  1.0000
  C   C23       1.0  0.7338899999999999  0.8312000000000002  0.05744000000000001  1.0000
  H   H15       1.0  0.7231999999999998  0.887  0.096  1.0000
  C   C24       1.0  0.87481  0.6933  0.47691  1.0000
  N   N2        1.0  0.7114799999999999  0.659  0.19580000000000006  1.0000
  H   H16       1.0  0.6876  0.7136000000000001  0.214  1.0000
  O   O5        1.0  0.89527  0.33706  0.18933  1.0000
  O   O6        1.0  0.9595199999999998  0.3179  0.32008  1.0000
  O   O7        1.0  0.9295399999999999  0.6476  0.52605  1.0000
  O   O8        1.0  0.84285  0.7852  0.49675000000000014  1.0000
  Zn  Zn2       1.0  0.94856  0.25236  0.13075  1.0000
  C   C25       1.0  0.58791  0.8686000000000001  0.23499  1.0000
  C   C26       1.0  0.63081  0.9717300000000001  0.21082  1.0000
  C   C27       1.0  0.61006  0.0261  0.13015  1.0000
  H   H17       1.0  0.5712  0.9948  0.0907  1.0000
  C   C28       1.0  0.64842  0.1282  0.10913  1.0000
  C   C29       1.0  0.70703  0.17090000000000005  0.16711  1.0000
  H   H18       1.0  0.7324999999999999  0.23780000000000004  0.1519  1.0000
  C   C30       1.0  0.72919  0.1155  0.2488  1.0000
  C   C31       1.0  0.68959  0.0166  0.27031  1.0000
  H   H19       1.0  0.7024  0.9805000000000001  0.3244  1.0000
  C   C32       1.0  0.8131199999999997  0.1182  0.39154  1.0000
  H   H20       1.0  0.8592  0.1425  0.4142  1.0000
  H   H21       1.0  0.8097999999999997  0.0155  0.3949000000000001  1.0000
  C   C33       1.0  0.77898  0.1853  0.44634  1.0000
  C   C34       1.0  0.76231  0.1056  0.5046500000000003  1.0000
  H   H22       1.0  0.7703  0.0081  0.5084  1.0000
  C   C35       1.0  0.7661099999999998  0.3312  0.4425600000000001  1.0000
  H   H23       1.0  0.7768  0.38700000000000007  0.404  1.0000
  C   C36       1.0  0.62519  0.1933  0.02309  1.0000
  N   N3        1.0  0.78852  0.159  0.3042  1.0000
  H   H24       1.0  0.8123999999999999  0.2136  0.286  1.0000
  O   O9        1.0  0.6047299999999999  0.83706  0.31067  1.0000
  O   O10       1.0  0.54048  0.8179  0.17992  1.0000
  O   O11       1.0  0.5704599999999999  0.1476  0.9739500000000002  1.0000
  O   O12       1.0  0.65715  0.2852  0.00325  1.0000
  Zn  Zn3       1.0  0.55144  0.75236  0.36925000000000013  1.0000
  C   C37       1.0  0.08790999999999999  0.3686000000000001  0.23499  1.0000
  C   C38       1.0  0.13081  0.47173  0.21082  1.0000
  C   C39       1.0  0.11006  0.5261  0.13015  1.0000
  H   H25       1.0  0.0712  0.4948  0.0907  1.0000
  C   C40       1.0  0.14841999999999997  0.6282000000000001  0.10913  1.0000
  C   C41       1.0  0.20702999999999996  0.6709  0.16711  1.0000
  H   H26       1.0  0.2325  0.7378  0.1519  1.0000
  C   C42       1.0  0.22918999999999998  0.6155  0.2488  1.0000
  C   C43       1.0  0.18958999999999998  0.5166  0.27031  1.0000
  H   H27       1.0  0.2024  0.48050000000000004  0.3244  1.0000
  C   C44       1.0  0.31312  0.6182000000000002  0.39154  1.0000
  H   H28       1.0  0.3592  0.6425000000000002  0.4142  1.0000
  H   H29       1.0  0.3098000000000001  0.5155  0.3949000000000001  1.0000
  C   C45       1.0  0.27898  0.6853  0.44634  1.0000
  C   C46       1.0  0.26231  0.6056  0.5046500000000003  1.0000
  H   H30       1.0  0.2703  0.5081  0.5084  1.0000
  C   C47       1.0  0.26611000000000007  0.8312000000000002  0.4425600000000001  1.0000
  H   H31       1.0  0.2768  0.887  0.404  1.0000
  C   C48       1.0  0.12519  0.6933  0.02309  1.0000
  N   N4        1.0  0.28851999999999994  0.659  0.3042  1.0000
  H   H32       1.0  0.3124  0.7136000000000001  0.286  1.0000
  O   O13       1.0  0.10472999999999999  0.33706  0.31067  1.0000
  O   O14       1.0  0.04047999999999999  0.3179  0.17992  1.0000
  O   O15       1.0  0.07046000000000001  0.6476  0.9739500000000002  1.0000
  O   O16       1.0  0.15714999999999998  0.7852  0.00325  1.0000
  Zn  Zn4       1.0  0.051440000000000034  0.25236  0.36925000000000013  1.0000
  C   C49       1.0  0.58791  0.1314  0.7349900000000003  1.0000
  C   C50       1.0  0.63081  0.028270000000000003  0.71082  1.0000
  C   C51       1.0  0.61006  0.9739000000000001  0.63015  1.0000
  H   H33       1.0  0.5712  0.0052  0.5907  1.0000
  C   C52       1.0  0.6484200000000001  0.8718  0.6091300000000002  1.0000
  C   C53       1.0  0.70703  0.8291  0.66711  1.0000
  H   H34       1.0  0.7324999999999999  0.7622000000000001  0.6519  1.0000
  C   C54       1.0  0.72919  0.8845  0.7488  1.0000
  C   C55       1.0  0.68959  0.9834  0.77031  1.0000
  H   H35       1.0  0.7024  0.0195  0.8244000000000002  1.0000
  C   C56       1.0  0.8131199999999997  0.8818  0.89154  1.0000
  H   H36       1.0  0.8592  0.8575000000000002  0.9142000000000002  1.0000
  H   H37       1.0  0.8097999999999997  0.9845  0.8949  1.0000
  C   C57       1.0  0.77898  0.8147  0.94634  1.0000
  C   C58       1.0  0.76231  0.8944  0.00465  1.0000
  H   H38       1.0  0.7703  0.9919  0.0084  1.0000
  C   C59       1.0  0.7661099999999998  0.6688  0.94256  1.0000
  H   H39       1.0  0.7768  0.6130000000000001  0.904  1.0000
  C   C60       1.0  0.62519  0.8067000000000001  0.5230900000000003  1.0000
  N   N5        1.0  0.78852  0.8410000000000001  0.8042000000000002  1.0000
  H   H40       1.0  0.8123999999999999  0.7864  0.786  1.0000
  O   O17       1.0  0.6047299999999999  0.16294  0.8106700000000002  1.0000
  O   O18       1.0  0.54048  0.1821  0.67992  1.0000
  O   O19       1.0  0.5704599999999999  0.8524  0.47395  1.0000
  O   O20       1.0  0.65715  0.7148  0.50325  1.0000
  Zn  Zn5       1.0  0.55144  0.24764000000000003  0.86925  1.0000
  C   C61       1.0  0.08791000000000003  0.6314000000000001  0.7349900000000003  1.0000
  C   C62       1.0  0.13081  0.5282700000000001  0.71082  1.0000
  C   C63       1.0  0.11006  0.4739  0.63015  1.0000
  H   H41       1.0  0.0712  0.5052  0.5907  1.0000
  C   C64       1.0  0.14842000000000005  0.3718  0.6091300000000002  1.0000
  C   C65       1.0  0.20702999999999996  0.3291  0.66711  1.0000
  H   H42       1.0  0.2325  0.2622  0.6519  1.0000
  C   C66       1.0  0.22918999999999998  0.38450000000000006  0.7488  1.0000
  C   C67       1.0  0.18958999999999998  0.4834  0.77031  1.0000
  H   H43       1.0  0.20240000000000005  0.5195  0.8244000000000002  1.0000
  C   C68       1.0  0.31312  0.3818  0.89154  1.0000
  H   H44       1.0  0.3592  0.3575  0.9142000000000002  1.0000
  H   H45       1.0  0.3098  0.4845  0.8949  1.0000
  C   C69       1.0  0.27898  0.3147  0.94634  1.0000
  C   C70       1.0  0.26231  0.3944  0.00465  1.0000
  H   H46       1.0  0.2703  0.4919  0.0084  1.0000
  C   C71       1.0  0.26611  0.16880000000000003  0.94256  1.0000
  H   H47       1.0  0.2768  0.113  0.904  1.0000
  C   C72       1.0  0.12519000000000002  0.3067  0.5230900000000003  1.0000
  N   N6        1.0  0.28852  0.3410000000000001  0.8042000000000002  1.0000
  H   H48       1.0  0.3124  0.28640000000000004  0.786  1.0000
  O   O21       1.0  0.10473000000000003  0.6629400000000001  0.8106700000000002  1.0000
  O   O22       1.0  0.04048  0.6821  0.67992  1.0000
  O   O23       1.0  0.07045999999999998  0.3524  0.47395  1.0000
  O   O24       1.0  0.15714999999999998  0.2148  0.50325  1.0000
  Zn  Zn6       1.0  0.05143999999999997  0.7476400000000002  0.86925  1.0000
  C   C73       1.0  0.41209  0.1314  0.76501  1.0000
  C   C74       1.0  0.36918999999999996  0.028270000000000003  0.78918  1.0000
  C   C75       1.0  0.38994  0.9739000000000001  0.86985  1.0000
  H   H49       1.0  0.4288  0.0052  0.9093  1.0000
  C   C76       1.0  0.3515799999999999  0.8718  0.89087  1.0000
  C   C77       1.0  0.29297  0.8291  0.83289  1.0000
  H   H50       1.0  0.26750000000000007  0.7622000000000001  0.8481000000000002  1.0000
  C   C78       1.0  0.27081  0.8845  0.7512  1.0000
  C   C79       1.0  0.31040999999999996  0.9834  0.72969  1.0000
  H   H51       1.0  0.2976  0.0195  0.6756  1.0000
  C   C80       1.0  0.18688  0.8818  0.60846  1.0000
  H   H52       1.0  0.1408  0.8575000000000002  0.5858  1.0000
  H   H53       1.0  0.1902  0.9845  0.6051  1.0000
  C   C81       1.0  0.22102000000000002  0.8147  0.5536600000000003  1.0000
  C   C82       1.0  0.23769  0.8944  0.49535  1.0000
  H   H54       1.0  0.22969999999999996  0.9919  0.4916  1.0000
  C   C83       1.0  0.23388999999999996  0.6688  0.55744  1.0000
  H   H55       1.0  0.22319999999999998  0.6130000000000001  0.596  1.0000
  C   C84       1.0  0.3748099999999999  0.8067000000000001  0.97691  1.0000
  N   N7        1.0  0.21148  0.8410000000000001  0.6958  1.0000
  H   H56       1.0  0.18760000000000002  0.7864  0.7140000000000002  1.0000
  O   O25       1.0  0.39527  0.16294  0.68933  1.0000
  O   O26       1.0  0.45951999999999993  0.1821  0.8200800000000003  1.0000
  O   O27       1.0  0.42954  0.8524  0.02605  1.0000
  O   O28       1.0  0.34285  0.7148  0.99675  1.0000
  Zn  Zn7       1.0  0.44856  0.24764000000000003  0.63075  1.0000
  C   C85       1.0  0.91209  0.6314000000000001  0.76501  1.0000
  C   C86       1.0  0.86919  0.5282700000000001  0.78918  1.0000
  C   C87       1.0  0.88994  0.4739  0.86985  1.0000
  H   H57       1.0  0.9287999999999997  0.5052  0.9093  1.0000
  C   C88       1.0  0.8515799999999998  0.3718  0.89087  1.0000
  C   C89       1.0  0.79297  0.3291  0.83289  1.0000
  H   H58       1.0  0.7675  0.2622  0.8481000000000002  1.0000
  C   C90       1.0  0.77081  0.38450000000000006  0.7512  1.0000
  C   C91       1.0  0.8104099999999999  0.4834  0.72969  1.0000
  H   H59       1.0  0.7976  0.5195  0.6756  1.0000
  C   C92       1.0  0.68688  0.3818  0.60846  1.0000
  H   H60       1.0  0.6408  0.3575  0.5858  1.0000
  H   H61       1.0  0.6902  0.4845  0.6051  1.0000
  C   C93       1.0  0.72102  0.3147  0.5536600000000003  1.0000
  C   C94       1.0  0.73769  0.3944  0.49535  1.0000
  H   H62       1.0  0.7297  0.4919  0.4916  1.0000
  C   C95       1.0  0.7338899999999999  0.16880000000000003  0.55744  1.0000
  H   H63       1.0  0.7231999999999998  0.113  0.596  1.0000
  C   C96       1.0  0.87481  0.3067  0.97691  1.0000
  N   N8        1.0  0.7114799999999999  0.3410000000000001  0.6958  1.0000
  H   H64       1.0  0.6876  0.28640000000000004  0.7140000000000002  1.0000
  O   O29       1.0  0.89527  0.6629400000000001  0.68933  1.0000
  O   O30       1.0  0.9595199999999999  0.6821  0.8200800000000003  1.0000
  O   O31       1.0  0.9295399999999999  0.3524  0.02605  1.0000
  O   O32       1.0  0.84285  0.2148  0.99675  1.0000
  Zn  Zn8       1.0  0.94856  0.7476400000000002  0.63075  1.0000
