data_image0
_chemical_formula_structural       C3HCHC2HCHC2HCHCHO3C3HCHC2HCHC2HCHCHO3C3HCHC2HCHC2HCHCHO3C3HCHC2HCHC2HCHCHO3C3HCHC2HCHC2HCHCHO3C3HCHC2HCHC2HCHCHO3C3HCHC2HCHC2HCHCHO3C3HCHC2HCHC2HCHCHO3C3HCHC2HCHC2HCHCHO3C3HCHC2HCHC2HCHCHO3C3HCHC2HCHC2HCHCHO3C3HCHC2HCHC2HCHCHO3Pr6CHC5HC5HC5HC5HC5HC4
_chemical_formula_sum              "C162 H90 O36 Pr6"
_cell_length_a       16.4393
_cell_length_b       16.4393
_cell_length_c       23.777
_cell_angle_alpha    90.0
_cell_angle_beta     90.0
_cell_angle_gamma    119.99999999999999

_symmetry_space_group_name_H-M    'P 1'
_symmetry_Int_Tables_number       1

loop_
  _symmetry_equiv_pos_as_xyz
  'x,y,z'

loop_
  _atom_site_type_symbol
  _atom_site_label
  _atom_site_symmetry_multiplicity
  _atom_site_fract_x
  _atom_site_fract_y
  _atom_site_fract_z
  _atom_site_occupancy
  C   C1        1.0  0.8258  0.8013  0.03740000000000001  1.0000
  C   C2        1.0  0.7883  0.6967  0.04200000000000001  1.0000
  C   C3        1.0  0.8324  0.6614  0.07480000000000002  1.0000
  H   H1        1.0  0.8896000000000001  0.7023  0.09160000000000001  1.0000
  C   C4        1.0  0.7928  0.5663  0.0828  1.0000
  H   H2        1.0  0.8228999999999997  0.5439  0.10590000000000001  1.0000
  C   C5        1.0  0.7066  0.5015  0.05660000000000001  1.0000
  C   C6        1.0  0.6662  0.538  0.0213  1.0000
  H   H3        1.0  0.6117999999999998  0.4971  0.0018  1.0000
  C   C7        1.0  0.7048000000000001  0.6349000000000001  0.0141  1.0000
  H   H4        1.0  0.6751999999999998  0.6581  0.9910000000000001  1.0000
  C   C8        1.0  0.6573999999999998  0.4009  0.0704  1.0000
  C   C9        1.0  0.5613  0.3497  0.0691  1.0000
  H   H5        1.0  0.5284999999999997  0.3795  0.0581  1.0000
  C   C10       1.0  0.3563  0.2213  0.0426  1.0000
  H   H6        1.0  0.3888999999999999  0.2658  0.014800000000000004  1.0000
  C   C11       1.0  0.2594  0.1741  0.043  1.0000
  H   H7        1.0  0.2271  0.1884  0.0163  1.0000
  O   O1        1.0  0.8914  0.8584  0.0688  1.0000
  O   O2        1.0  0.79  0.8305  0.0016000000000000003  1.0000
  O   O3        1.0  0.0642  0.0705  0.045100000000000015  1.0000
  C   C12       1.0  0.1987  0.0245  0.37073  1.0000
  C   C13       1.0  0.3033  0.0916  0.37533  1.0000
  C   C14       1.0  0.3385999999999999  0.171  0.40813  1.0000
  H   H8        1.0  0.2976999999999999  0.1873  0.42493000000000003  1.0000
  C   C15       1.0  0.4337  0.2265  0.4161300000000001  1.0000
  H   H9        1.0  0.4561  0.279  0.43923  1.0000
  C   C16       1.0  0.49850000000000005  0.2051  0.38993  1.0000
  C   C17       1.0  0.4619999999999999  0.1282  0.3546300000000001  1.0000
  H   H10       1.0  0.5029  0.1147  0.33513  1.0000
  C   C18       1.0  0.36509999999999987  0.0699  0.34743000000000007  1.0000
  H   H11       1.0  0.3419  0.0171  0.32433000000000006  1.0000
  C   C19       1.0  0.5991  0.2565  0.40373000000000003  1.0000
  C   C20       1.0  0.6503  0.21160000000000004  0.4024300000000001  1.0000
  H   H12       1.0  0.6205  0.14900000000000005  0.3914300000000001  1.0000
  C   C21       1.0  0.7786999999999998  0.135  0.37593  1.0000
  H   H13       1.0  0.7341999999999997  0.1231  0.34813  1.0000
  C   C22       1.0  0.8258999999999997  0.0853  0.37633  1.0000
  H   H14       1.0  0.8116  0.0387  0.34963  1.0000
  O   O4        1.0  0.1416  0.033  0.40213  1.0000
  O   O5        1.0  0.16950000000000004  0.9595  0.33493  1.0000
  O   O6        1.0  0.9294999999999998  0.9937  0.3784300000000001  1.0000
  C   C23       1.0  0.9755  0.1742  0.70407  1.0000
  C   C24       1.0  0.9084  0.2117  0.7086700000000002  1.0000
  C   C25       1.0  0.829  0.16760000000000005  0.74147  1.0000
  H   H15       1.0  0.8127  0.1104  0.75827  1.0000
  C   C26       1.0  0.7735  0.2072  0.7494700000000001  1.0000
  H   H16       1.0  0.721  0.1771  0.7725700000000002  1.0000
  C   C27       1.0  0.7949  0.2934  0.7232700000000002  1.0000
  C   C28       1.0  0.8718  0.3338  0.6879700000000001  1.0000
  H   H17       1.0  0.8852999999999998  0.3882  0.66847  1.0000
  C   C29       1.0  0.9301  0.2952  0.68077  1.0000
  H   H18       1.0  0.9829  0.3248  0.65767  1.0000
  C   C30       1.0  0.7435  0.3426  0.73707  1.0000
  C   C31       1.0  0.7884  0.4387  0.73577  1.0000
  H   H19       1.0  0.851  0.4715  0.72477  1.0000
  C   C32       1.0  0.8649999999999999  0.6437000000000003  0.70927  1.0000
  H   H20       1.0  0.8768999999999998  0.6111  0.6814700000000002  1.0000
  C   C33       1.0  0.9147  0.7406  0.70967  1.0000
  H   H21       1.0  0.9613  0.7729  0.68297  1.0000
  O   O7        1.0  0.967  0.1086  0.7354700000000002  1.0000
  O   O8        1.0  0.0405  0.21  0.66827  1.0000
  O   O9        1.0  0.006300000000000104  0.9358000000000002  0.7117700000000001  1.0000
  C   C34       1.0  0.17420000000000002  0.19870000000000004  0.5374  1.0000
  C   C35       1.0  0.21169999999999997  0.3033  0.542  1.0000
  C   C36       1.0  0.1676  0.3386  0.5748  1.0000
  H   H22       1.0  0.1104  0.2977  0.5916  1.0000
  C   C37       1.0  0.20719999999999994  0.4337  0.5828000000000001  1.0000
  H   H23       1.0  0.1771  0.4561  0.6059  1.0000
  C   C38       1.0  0.2934  0.4985  0.5566  1.0000
  C   C39       1.0  0.3338  0.462  0.5213000000000001  1.0000
  H   H24       1.0  0.3882  0.5029  0.5018000000000001  1.0000
  C   C40       1.0  0.2952  0.3651  0.5141  1.0000
  H   H25       1.0  0.32480000000000003  0.34190000000000004  0.491  1.0000
  C   C41       1.0  0.3426  0.5991  0.5704  1.0000
  C   C42       1.0  0.43869999999999987  0.6503  0.5691000000000002  1.0000
  H   H26       1.0  0.4715  0.6205  0.5581  1.0000
  C   C43       1.0  0.6437000000000002  0.7787000000000002  0.5426  1.0000
  H   H27       1.0  0.6111  0.7342  0.5148  1.0000
  C   C44       1.0  0.7405999999999998  0.8259000000000001  0.5430000000000001  1.0000
  H   H28       1.0  0.7728999999999999  0.8116  0.5163  1.0000
  O   O10       1.0  0.10860000000000002  0.1416  0.5688  1.0000
  O   O11       1.0  0.21  0.1695  0.5016  1.0000
  O   O12       1.0  0.9358  0.9295  0.5451  1.0000
  C   C45       1.0  0.8013  0.9755  0.87073  1.0000
  C   C46       1.0  0.6967  0.9084  0.87533  1.0000
  C   C47       1.0  0.6614  0.829  0.9081300000000001  1.0000
  H   H29       1.0  0.7023  0.8127  0.9249300000000001  1.0000
  C   C48       1.0  0.5663  0.7735  0.9161300000000002  1.0000
  H   H30       1.0  0.5438999999999998  0.7210000000000001  0.93923  1.0000
  C   C49       1.0  0.5015  0.7949  0.88993  1.0000
  C   C50       1.0  0.538  0.8718  0.8546300000000002  1.0000
  H   H31       1.0  0.4971000000000001  0.8853000000000001  0.83513  1.0000
  C   C51       1.0  0.6349  0.9301  0.84743  1.0000
  H   H32       1.0  0.6581  0.9829  0.82433  1.0000
  C   C52       1.0  0.4009  0.7435  0.90373  1.0000
  C   C53       1.0  0.3497  0.7884  0.9024300000000001  1.0000
  H   H33       1.0  0.3794999999999999  0.851  0.8914300000000001  1.0000
  C   C54       1.0  0.2213  0.865  0.87593  1.0000
  H   H34       1.0  0.2658  0.8769  0.84813  1.0000
  C   C55       1.0  0.17410000000000017  0.9147000000000002  0.87633  1.0000
  H   H35       1.0  0.18840000000000007  0.9613000000000003  0.8496300000000001  1.0000
  O   O13       1.0  0.8584  0.967  0.90213  1.0000
  O   O14       1.0  0.8305  0.0405  0.83493  1.0000
  O   O15       1.0  0.0705  0.006300000000000002  0.8784300000000003  1.0000
  C   C56       1.0  0.024500000000000015  0.8258  0.20407000000000003  1.0000
  C   C57       1.0  0.0916  0.7883  0.20867000000000005  1.0000
  C   C58       1.0  0.17100000000000004  0.8324  0.24147000000000002  1.0000
  H   H36       1.0  0.18729999999999997  0.8896  0.25827  1.0000
  C   C59       1.0  0.2265  0.7928  0.24947  1.0000
  H   H37       1.0  0.279  0.8229  0.27257  1.0000
  C   C60       1.0  0.2050999999999999  0.7066  0.22327  1.0000
  C   C61       1.0  0.1282  0.6662  0.18797000000000003  1.0000
  H   H38       1.0  0.11469999999999998  0.6118  0.16847  1.0000
  C   C62       1.0  0.06990000000000002  0.7048  0.18077  1.0000
  H   H39       1.0  0.017100000000000004  0.6752  0.15767  1.0000
  C   C63       1.0  0.2565  0.6574  0.23707000000000006  1.0000
  C   C64       1.0  0.2116  0.5613  0.23577000000000006  1.0000
  H   H40       1.0  0.149  0.5285  0.22477000000000005  1.0000
  C   C65       1.0  0.13500000000000004  0.35630000000000006  0.20927000000000004  1.0000
  H   H41       1.0  0.12309999999999997  0.3889  0.18147  1.0000
  C   C66       1.0  0.0853  0.2594  0.20967000000000005  1.0000
  H   H42       1.0  0.03869999999999998  0.2271  0.18297  1.0000
  O   O16       1.0  0.03300000000000015  0.8914000000000002  0.23547000000000007  1.0000
  O   O17       1.0  0.9595  0.79  0.16827  1.0000
  O   O18       1.0  0.9936999999999999  0.0642  0.21177  1.0000
  C   C67       1.0  0.8013  0.8258  0.29593  1.0000
  C   C68       1.0  0.6967  0.7883  0.29133  1.0000
  C   C69       1.0  0.6614  0.8324  0.25853000000000004  1.0000
  H   H43       1.0  0.7023  0.8896  0.24173  1.0000
  C   C70       1.0  0.5663  0.7928  0.25053  1.0000
  H   H44       1.0  0.5438999999999998  0.8229  0.22743000000000005  1.0000
  C   C71       1.0  0.5015  0.7066  0.27673  1.0000
  C   C72       1.0  0.538  0.6662  0.31203000000000003  1.0000
  H   H45       1.0  0.4971  0.6118  0.33153  1.0000
  C   C73       1.0  0.6349  0.7048  0.31923000000000007  1.0000
  H   H46       1.0  0.6581  0.6752  0.34233  1.0000
  C   C74       1.0  0.4009  0.6574  0.26293  1.0000
  C   C75       1.0  0.3497  0.5613  0.26423  1.0000
  H   H47       1.0  0.3794999999999999  0.5285  0.27523  1.0000
  C   C76       1.0  0.22130000000000002  0.35630000000000006  0.29073  1.0000
  H   H48       1.0  0.2658  0.3889  0.31853000000000004  1.0000
  C   C77       1.0  0.1741  0.2594  0.29033  1.0000
  H   H49       1.0  0.1884  0.2271  0.31703  1.0000
  O   O19       1.0  0.8584  0.8914000000000002  0.26453  1.0000
  O   O20       1.0  0.8305  0.79  0.33173  1.0000
  O   O21       1.0  0.0705  0.0642  0.28823000000000004  1.0000
  C   C78       1.0  0.02450000000000003  0.19870000000000004  0.9626  1.0000
  C   C79       1.0  0.09159999999999997  0.3033  0.958  1.0000
  C   C80       1.0  0.171  0.3386  0.9252000000000002  1.0000
  H   H50       1.0  0.1873  0.2977  0.9084000000000002  1.0000
  C   C81       1.0  0.2265  0.4337  0.9172000000000001  1.0000
  H   H51       1.0  0.279  0.4561  0.8941000000000001  1.0000
  C   C82       1.0  0.2051  0.4985  0.9434000000000001  1.0000
  C   C83       1.0  0.1282  0.462  0.9787000000000001  1.0000
  H   H52       1.0  0.11469999999999997  0.5029  0.9982  1.0000
  C   C84       1.0  0.06990000000000003  0.3651  0.9859  1.0000
  H   H53       1.0  0.017100000000000032  0.34190000000000004  0.009  1.0000
  C   C85       1.0  0.2565  0.5991  0.9296  1.0000
  C   C86       1.0  0.2116  0.6503  0.9309  1.0000
  H   H54       1.0  0.14899999999999994  0.6205  0.9419  1.0000
  C   C87       1.0  0.13500000000000015  0.7787000000000002  0.9574  1.0000
  H   H55       1.0  0.12309999999999997  0.7342  0.9852000000000001  1.0000
  C   C88       1.0  0.08530000000000006  0.8259000000000001  0.957  1.0000
  H   H56       1.0  0.03870000000000002  0.8116  0.9837  1.0000
  O   O22       1.0  0.033000000000000015  0.1416  0.9312000000000001  1.0000
  O   O23       1.0  0.9595  0.1695  0.9984000000000002  1.0000
  O   O24       1.0  0.9936999999999999  0.9295  0.9549000000000002  1.0000
  C   C89       1.0  0.17420000000000002  0.9755  0.6292700000000001  1.0000
  C   C90       1.0  0.2117  0.9084  0.6246700000000001  1.0000
  C   C91       1.0  0.1676  0.829  0.5918700000000001  1.0000
  H   H57       1.0  0.11040000000000003  0.8127  0.5750700000000001  1.0000
  C   C92       1.0  0.20719999999999994  0.7735  0.58387  1.0000
  H   H58       1.0  0.1771  0.7210000000000001  0.56077  1.0000
  C   C93       1.0  0.2934  0.7949  0.61007  1.0000
  C   C94       1.0  0.3338  0.8718  0.64537  1.0000
  H   H59       1.0  0.38820000000000005  0.8853000000000001  0.66487  1.0000
  C   C95       1.0  0.29519999999999996  0.9301  0.65257  1.0000
  H   H60       1.0  0.32480000000000003  0.9829  0.6756700000000002  1.0000
  C   C96       1.0  0.3426  0.7435  0.5962700000000001  1.0000
  C   C97       1.0  0.43869999999999987  0.7884  0.5975700000000002  1.0000
  H   H61       1.0  0.4715  0.851  0.60857  1.0000
  C   C98       1.0  0.6437  0.865  0.6240700000000001  1.0000
  H   H62       1.0  0.6111  0.8769  0.65187  1.0000
  C   C99       1.0  0.7405999999999999  0.9147000000000002  0.62367  1.0000
  H   H63       1.0  0.7729  0.9613000000000003  0.65037  1.0000
  O   O25       1.0  0.10860000000000004  0.967  0.59787  1.0000
  O   O26       1.0  0.21  0.0405  0.66507  1.0000
  O   O27       1.0  0.9358  0.006300000000000002  0.62157  1.0000
  C   C100      1.0  0.1987  0.1742  0.79593  1.0000
  C   C101      1.0  0.3033  0.2117  0.79133  1.0000
  C   C102      1.0  0.33859999999999996  0.16760000000000005  0.7585300000000001  1.0000
  H   H64       1.0  0.2976999999999999  0.1104  0.7417300000000001  1.0000
  C   C103      1.0  0.4337  0.2072  0.75053  1.0000
  H   H65       1.0  0.4561  0.1771  0.72743  1.0000
  C   C104      1.0  0.49850000000000005  0.2934  0.77673  1.0000
  C   C105      1.0  0.4619999999999999  0.3338  0.81203  1.0000
  H   H66       1.0  0.5029  0.3882  0.8315300000000002  1.0000
  C   C106      1.0  0.36509999999999987  0.2952  0.8192300000000002  1.0000
  H   H67       1.0  0.3419  0.3248  0.84233  1.0000
  C   C107      1.0  0.5991  0.3426  0.76293  1.0000
  C   C108      1.0  0.6503  0.4387  0.7642300000000002  1.0000
  H   H68       1.0  0.6205  0.4715  0.7752300000000002  1.0000
  C   C109      1.0  0.7787000000000002  0.6437000000000003  0.79073  1.0000
  H   H69       1.0  0.7341999999999997  0.6111  0.81853  1.0000
  C   C110      1.0  0.8258999999999997  0.7406  0.7903300000000002  1.0000
  H   H70       1.0  0.8116  0.7729  0.8170300000000001  1.0000
  O   O28       1.0  0.1416  0.1086  0.76453  1.0000
  O   O29       1.0  0.1695  0.21  0.83173  1.0000
  O   O30       1.0  0.9294999999999999  0.9358000000000002  0.78823  1.0000
  C   C111      1.0  0.9755  0.8013  0.4626000000000001  1.0000
  C   C112      1.0  0.9084  0.6967  0.4580000000000001  1.0000
  C   C113      1.0  0.8290000000000001  0.6614  0.42520000000000013  1.0000
  H   H71       1.0  0.8127  0.7023  0.4084000000000001  1.0000
  C   C114      1.0  0.7735  0.5663  0.4172  1.0000
  H   H72       1.0  0.721  0.5439  0.3941  1.0000
  C   C115      1.0  0.7949000000000002  0.5015  0.4434  1.0000
  C   C116      1.0  0.8718  0.538  0.4787  1.0000
  H   H73       1.0  0.8852999999999998  0.4971  0.4982  1.0000
  C   C117      1.0  0.9301  0.6349000000000001  0.48590000000000005  1.0000
  H   H74       1.0  0.9829  0.6581  0.509  1.0000
  C   C118      1.0  0.7435  0.4009  0.4296000000000001  1.0000
  C   C119      1.0  0.7884  0.3497  0.4309  1.0000
  H   H75       1.0  0.8509999999999999  0.3795  0.4419  1.0000
  C   C120      1.0  0.8649999999999998  0.2213  0.4574000000000001  1.0000
  H   H76       1.0  0.8768999999999998  0.2658  0.48520000000000013  1.0000
  C   C121      1.0  0.9147  0.1741  0.457  1.0000
  H   H77       1.0  0.9613  0.1884  0.4837  1.0000
  O   O31       1.0  0.967  0.8584  0.4312  1.0000
  O   O32       1.0  0.0405  0.8305  0.4984  1.0000
  O   O33       1.0  0.006300000000000006  0.0705  0.4549  1.0000
  C   C122      1.0  0.8258  0.0245  0.12927  1.0000
  C   C123      1.0  0.7883  0.0916  0.12467  1.0000
  C   C124      1.0  0.8324  0.171  0.09187000000000001  1.0000
  H   H78       1.0  0.8895999999999998  0.1873  0.07507000000000001  1.0000
  C   C125      1.0  0.7928  0.2265  0.08387000000000001  1.0000
  H   H79       1.0  0.8229  0.279  0.06077000000000001  1.0000
  C   C126      1.0  0.7066  0.2051  0.11007  1.0000
  C   C127      1.0  0.6662  0.1282  0.14537000000000003  1.0000
  H   H80       1.0  0.6117999999999998  0.1147  0.16487  1.0000
  C   C128      1.0  0.7048  0.0699  0.15257  1.0000
  H   H81       1.0  0.6751999999999998  0.0171  0.17567  1.0000
  C   C129      1.0  0.6573999999999998  0.2565  0.09627000000000002  1.0000
  C   C130      1.0  0.5613  0.21160000000000004  0.09757000000000003  1.0000
  H   H82       1.0  0.5284999999999997  0.14900000000000005  0.10857  1.0000
  C   C131      1.0  0.3563  0.135  0.12407  1.0000
  H   H83       1.0  0.3888999999999999  0.1231  0.15187  1.0000
  C   C132      1.0  0.2594  0.0853  0.12367000000000003  1.0000
  H   H84       1.0  0.2271  0.0387  0.15037000000000003  1.0000
  O   O34       1.0  0.8914  0.033  0.09787000000000003  1.0000
  O   O35       1.0  0.79  0.9595  0.16507  1.0000
  O   O36       1.0  0.06419999999999992  0.9937  0.12157000000000003  1.0000
  Pr  Pr1       1.0  0.91567  0.0  0.0  1.0000
  Pr  Pr2       1.0  0.0  0.91567  0.33333  1.0000
  Pr  Pr3       1.0  0.08433  0.08433  0.6666700000000001  1.0000
  Pr  Pr4       1.0  0.08433  0.0  0.5  1.0000
  Pr  Pr5       1.0  0.0  0.08433  0.8333300000000001  1.0000
  Pr  Pr6       1.0  0.91567  0.91567  0.16667000000000004  1.0000
  C   C133      1.0  0.7067  0.35335  0.08333  1.0000
  H   H85       1.0  0.772  0.38600000000000007  0.08333  1.0000
  C   C134      1.0  0.5108  0.2554  0.08333  1.0000
  C   C135      1.0  0.4054999999999999  0.20275  0.08333  1.0000
  C   C136      1.0  0.2095  0.10475  0.08333  1.0000
  C   C137      1.0  0.10409999999999994  0.05205  0.08333  1.0000
  C   C138      1.0  0.64665  0.35335  0.4166700000000001  1.0000
  H   H86       1.0  0.614  0.38600000000000007  0.4166700000000001  1.0000
  C   C139      1.0  0.7445999999999997  0.2554  0.4166700000000001  1.0000
  C   C140      1.0  0.79725  0.20275  0.4166700000000001  1.0000
  C   C141      1.0  0.8952499999999998  0.10475  0.4166700000000001  1.0000
  C   C142      1.0  0.94795  0.05205  0.4166700000000001  1.0000
  C   C143      1.0  0.64665  0.29330000000000006  0.75  1.0000
  H   H87       1.0  0.614  0.228  0.75  1.0000
  C   C144      1.0  0.7445999999999998  0.4892  0.75  1.0000
  C   C145      1.0  0.79725  0.5945  0.75  1.0000
  C   C146      1.0  0.8952499999999998  0.7905  0.75  1.0000
  C   C147      1.0  0.9479499999999998  0.8959  0.75  1.0000
  C   C148      1.0  0.2933  0.64665  0.58333  1.0000
  H   H88       1.0  0.22799999999999995  0.614  0.58333  1.0000
  C   C149      1.0  0.48919999999999997  0.7446  0.58333  1.0000
  C   C150      1.0  0.5945  0.79725  0.58333  1.0000
  C   C151      1.0  0.7905000000000001  0.8952500000000002  0.58333  1.0000
  C   C152      1.0  0.8959  0.94795  0.58333  1.0000
  C   C153      1.0  0.35335  0.64665  0.91667  1.0000
  H   H89       1.0  0.386  0.614  0.91667  1.0000
  C   C154      1.0  0.2554  0.7446  0.91667  1.0000
  C   C155      1.0  0.20274999999999996  0.79725  0.91667  1.0000
  C   C156      1.0  0.1047500000000001  0.8952500000000002  0.91667  1.0000
  C   C157      1.0  0.052049999999999985  0.94795  0.91667  1.0000
  C   C158      1.0  0.35335  0.7067  0.25  1.0000
  H   H90       1.0  0.38600000000000007  0.7720000000000001  0.25  1.0000
  C   C159      1.0  0.2554  0.5108  0.25  1.0000
  C   C160      1.0  0.20274999999999996  0.4055  0.25  1.0000
  C   C161      1.0  0.10475  0.2095  0.25  1.0000
  C   C162      1.0  0.052049999999999985  0.1041  0.25  1.0000
