data_image0
_chemical_formula_structural       DyO3N2C3HC2HCHC4HCHCHO2NO2DyO3N2C3HC2HCHC4HCHCHO2NO2
_chemical_formula_sum              "Dy2 O14 N6 C24 H12"
_cell_length_a       9.2414
_cell_length_b       10.303999999999998
_cell_length_c       12.829100000000002
_cell_angle_alpha    76.388
_cell_angle_beta     69.431
_cell_angle_gamma    86.377

_symmetry_space_group_name_H-M    'P 1'
_symmetry_Int_Tables_number       1

loop_
  _symmetry_equiv_pos_as_xyz
  'x,y,z'

loop_
  _atom_site_type_symbol
  _atom_site_label
  _atom_site_symmetry_multiplicity
  _atom_site_fract_x
  _atom_site_fract_y
  _atom_site_fract_z
  _atom_site_occupancy
  Dy  Dy1       1.0  0.45967999999999987  0.25111  0.99767  1.0000
  O   O1        1.0  0.46029999999999993  0.8644000000000001  0.1454  1.0000
  O   O2        1.0  0.5885  0.5512000000000001  0.1141  1.0000
  O   O3        1.0  0.3371000000000001  0.05800000000000001  0.1244  1.0000
  N   N1        1.0  0.10029999999999996  0.8539999999999999  0.5426000000000001  1.0000
  N   N2        1.0  0.3732  0.357  0.5355  1.0000
  C   C1        1.0  0.5075  0.4476000000000001  0.1684  1.0000
  C   C2        1.0  0.06669999999999997  0.9589999999999999  0.47300000000000003  1.0000
  C   C3        1.0  0.15089999999999998  0.9953000000000001  0.35590000000000005  1.0000
  H   H1        1.0  0.1263  0.07309999999999998  0.3091  1.0000
  C   C4        1.0  0.4707  0.4606  0.46960000000000013  1.0000
  C   C5        1.0  0.21980000000000008  0.7803999999999998  0.4971000000000001  1.0000
  H   H2        1.0  0.2459000000000001  0.7060999999999998  0.5465  1.0000
  C   C6        1.0  0.5145  0.49330000000000007  0.3511000000000001  1.0000
  H   H3        1.0  0.5803  0.5686  0.3072  1.0000
  C   C7        1.0  0.46070000000000005  0.4145000000000001  0.2979  1.0000
  C   C8        1.0  0.3632000000000001  0.9481000000000003  0.1836  1.0000
  C   C9        1.0  0.2716000000000001  0.9147  0.3096  1.0000
  C   C10       1.0  0.3594  0.3086  0.3648  1.0000
  H   H4        1.0  0.3188  0.25350000000000006  0.3313  1.0000
  C   C11       1.0  0.3198  0.28630000000000005  0.483  1.0000
  H   H5        1.0  0.2491  0.21500000000000002  0.5292  1.0000
  C   C12       1.0  0.309  0.807  0.3801  1.0000
  H   H6        1.0  0.3927000000000001  0.7519  0.35090000000000005  1.0000
  O   O4        1.0  0.2255  0.21800000000000003  0.9587  1.0000
  O   O5        1.0  0.1872  0.3025  0.1027  1.0000
  N   N3        1.0  0.1313  0.2581  0.042900000000000015  1.0000
  O   O6        1.0  0.9895  0.2533  0.0625  1.0000
  O   O7        1.0  0.462  0.3668  0.1274  1.0000
  Dy  Dy2       1.0  0.54032  0.74889  0.00233  1.0000
  O   O8        1.0  0.5396999999999997  0.1356  0.8546000000000001  1.0000
  O   O9        1.0  0.4114999999999999  0.4488  0.8859000000000001  1.0000
  O   O10       1.0  0.6629  0.942  0.8756000000000002  1.0000
  N   N4        1.0  0.8997000000000002  0.146  0.45740000000000003  1.0000
  N   N5        1.0  0.6268  0.6429999999999999  0.46450000000000014  1.0000
  C   C13       1.0  0.4925  0.5524000000000001  0.8316  1.0000
  C   C14       1.0  0.9333000000000001  0.041000000000000016  0.527  1.0000
  C   C15       1.0  0.8491  0.0047  0.6441  1.0000
  H   H7        1.0  0.8737  0.9268999999999997  0.6909000000000001  1.0000
  C   C16       1.0  0.5293  0.5394000000000001  0.5304  1.0000
  C   C17       1.0  0.7802  0.2196  0.5029  1.0000
  H   H8        1.0  0.7541  0.29390000000000005  0.45350000000000007  1.0000
  C   C18       1.0  0.4855000000000001  0.5067  0.6489  1.0000
  H   H9        1.0  0.4197000000000001  0.43140000000000006  0.6928  1.0000
  C   C19       1.0  0.5393  0.5855  0.7021  1.0000
  C   C20       1.0  0.6368  0.051900000000000016  0.8164  1.0000
  C   C21       1.0  0.7284  0.0853  0.6904  1.0000
  C   C22       1.0  0.6406  0.6913999999999999  0.6352  1.0000
  H   H10       1.0  0.6811999999999999  0.7465  0.6687  1.0000
  C   C23       1.0  0.6802  0.7137  0.517  1.0000
  H   H11       1.0  0.7508999999999997  0.7850000000000001  0.4708000000000001  1.0000
  C   C24       1.0  0.6910000000000001  0.19300000000000003  0.6199  1.0000
  H   H12       1.0  0.6073000000000001  0.2481  0.6491  1.0000
  O   O11       1.0  0.7745  0.7820000000000001  0.0413  1.0000
  O   O12       1.0  0.8128  0.6975  0.8973  1.0000
  N   N6        1.0  0.8686999999999998  0.7419000000000001  0.9571000000000002  1.0000
  O   O13       1.0  0.010499999999999985  0.7467  0.9375  1.0000
  O   O14       1.0  0.5380000000000003  0.6331999999999999  0.8726  1.0000
