data_image0
_chemical_formula_structural       N96Co12C49HCHCHCHCHCHCHCHCHCHCHCHCHCHCHCHCHCHCHCHCHCHCHCH
_chemical_formula_sum              "N96 Co12 C72 H24"
_cell_length_a       18.7976
_cell_length_b       18.7976
_cell_length_c       18.7976
_cell_angle_alpha    90.0
_cell_angle_beta     90.0
_cell_angle_gamma    90.0

_space_group_name_H-M_alt    "P 1"
_space_group_IT_number       1

loop_
  _space_group_symop_operation_xyz
  'x, y, z'

loop_
  _atom_site_type_symbol
  _atom_site_label
  _atom_site_symmetry_multiplicity
  _atom_site_fract_x
  _atom_site_fract_y
  _atom_site_fract_z
  _atom_site_occupancy
  N   N1        1.0  0.36965  0.41876  0.07772  1.0000
  N   N2        1.0  0.32502  0.40828  0.13205  1.0000
  N   N3        1.0  0.63035  0.58124  0.07772  1.0000
  N   N4        1.0  0.67498  0.59172  0.13205  1.0000
  N   N5        1.0  0.63035  0.41876  0.9222800000000001  1.0000
  N   N6        1.0  0.67498  0.40828  0.86795  1.0000
  N   N7        1.0  0.36965  0.58124  0.9222800000000001  1.0000
  N   N8        1.0  0.32502  0.59172  0.86795  1.0000
  N   N9        1.0  0.07772  0.36965  0.41876  1.0000
  N   N10       1.0  0.13205  0.32502  0.40828  1.0000
  N   N11       1.0  0.07772  0.63035  0.58124  1.0000
  N   N12       1.0  0.13205  0.67498  0.59172  1.0000
  N   N13       1.0  0.9222800000000001  0.63035  0.41876  1.0000
  N   N14       1.0  0.86795  0.67498  0.40828  1.0000
  N   N15       1.0  0.9222800000000001  0.36965  0.58124  1.0000
  N   N16       1.0  0.86795  0.32502  0.59172  1.0000
  N   N17       1.0  0.41876  0.07772  0.36965  1.0000
  N   N18       1.0  0.40828  0.13205  0.32502  1.0000
  N   N19       1.0  0.58124  0.07772  0.63035  1.0000
  N   N20       1.0  0.59172  0.13205  0.67498  1.0000
  N   N21       1.0  0.41876  0.9222800000000001  0.63035  1.0000
  N   N22       1.0  0.40828  0.86795  0.67498  1.0000
  N   N23       1.0  0.58124  0.9222800000000001  0.36965  1.0000
  N   N24       1.0  0.59172  0.86795  0.32502  1.0000
  N   N25       1.0  0.41876  0.36965  0.9222800000000001  1.0000
  N   N26       1.0  0.40828  0.32502  0.86795  1.0000
  N   N27       1.0  0.58124  0.63035  0.9222800000000001  1.0000
  N   N28       1.0  0.59172  0.67498  0.86795  1.0000
  N   N29       1.0  0.41876  0.63035  0.07772  1.0000
  N   N30       1.0  0.40828  0.67498  0.13205  1.0000
  N   N31       1.0  0.58124  0.36965  0.07772  1.0000
  N   N32       1.0  0.59172  0.32502  0.13205  1.0000
  N   N33       1.0  0.36965  0.07772  0.58124  1.0000
  N   N34       1.0  0.32502  0.13205  0.59172  1.0000
  N   N35       1.0  0.63035  0.07772  0.41876  1.0000
  N   N36       1.0  0.67498  0.13205  0.40828  1.0000
  N   N37       1.0  0.63035  0.9222800000000001  0.58124  1.0000
  N   N38       1.0  0.67498  0.86795  0.59172  1.0000
  N   N39       1.0  0.36965  0.9222800000000001  0.41876  1.0000
  N   N40       1.0  0.32502  0.86795  0.40828  1.0000
  N   N41       1.0  0.07772  0.41876  0.63035  1.0000
  N   N42       1.0  0.13205  0.40828  0.67498  1.0000
  N   N43       1.0  0.07772  0.58124  0.36965  1.0000
  N   N44       1.0  0.13205  0.59172  0.32502  1.0000
  N   N45       1.0  0.9222800000000001  0.41876  0.36965  1.0000
  N   N46       1.0  0.86795  0.40828  0.32502  1.0000
  N   N47       1.0  0.9222800000000001  0.58124  0.63035  1.0000
  N   N48       1.0  0.86795  0.59172  0.67498  1.0000
  N   N49       1.0  0.63035  0.58124  0.9222800000000001  1.0000
  N   N50       1.0  0.67498  0.59172  0.86795  1.0000
  N   N51       1.0  0.36965  0.41876  0.9222800000000001  1.0000
  N   N52       1.0  0.32502  0.40828  0.86795  1.0000
  N   N53       1.0  0.36965  0.58124  0.07772  1.0000
  N   N54       1.0  0.32502  0.59172  0.13205  1.0000
  N   N55       1.0  0.63035  0.41876  0.07772  1.0000
  N   N56       1.0  0.67498  0.40828  0.13205  1.0000
  N   N57       1.0  0.9222800000000001  0.63035  0.58124  1.0000
  N   N58       1.0  0.86795  0.67498  0.59172  1.0000
  N   N59       1.0  0.9222800000000001  0.36965  0.41876  1.0000
  N   N60       1.0  0.86795  0.32502  0.40828  1.0000
  N   N61       1.0  0.07772  0.36965  0.58124  1.0000
  N   N62       1.0  0.13205  0.32502  0.59172  1.0000
  N   N63       1.0  0.07772  0.63035  0.41876  1.0000
  N   N64       1.0  0.13205  0.67498  0.40828  1.0000
  N   N65       1.0  0.58124  0.9222800000000001  0.63035  1.0000
  N   N66       1.0  0.59172  0.86795  0.67498  1.0000
  N   N67       1.0  0.41876  0.9222800000000001  0.36965  1.0000
  N   N68       1.0  0.40828  0.86795  0.32502  1.0000
  N   N69       1.0  0.58124  0.07772  0.36965  1.0000
  N   N70       1.0  0.59172  0.13205  0.32502  1.0000
  N   N71       1.0  0.41876  0.07772  0.63035  1.0000
  N   N72       1.0  0.40828  0.13205  0.67498  1.0000
  N   N73       1.0  0.58124  0.63035  0.07772  1.0000
  N   N74       1.0  0.59172  0.67498  0.13205  1.0000
  N   N75       1.0  0.41876  0.36965  0.07772  1.0000
  N   N76       1.0  0.40828  0.32502  0.13205  1.0000
  N   N77       1.0  0.58124  0.36965  0.9222800000000001  1.0000
  N   N78       1.0  0.59172  0.32502  0.86795  1.0000
  N   N79       1.0  0.41876  0.63035  0.9222800000000001  1.0000
  N   N80       1.0  0.40828  0.67498  0.86795  1.0000
  N   N81       1.0  0.63035  0.9222800000000001  0.41876  1.0000
  N   N82       1.0  0.67498  0.86795  0.40828  1.0000
  N   N83       1.0  0.36965  0.9222800000000001  0.58124  1.0000
  N   N84       1.0  0.32502  0.86795  0.59172  1.0000
  N   N85       1.0  0.36965  0.07772  0.41876  1.0000
  N   N86       1.0  0.32502  0.13205  0.40828  1.0000
  N   N87       1.0  0.63035  0.07772  0.58124  1.0000
  N   N88       1.0  0.67498  0.13205  0.59172  1.0000
  N   N89       1.0  0.9222800000000001  0.58124  0.36965  1.0000
  N   N90       1.0  0.86795  0.59172  0.32502  1.0000
  N   N91       1.0  0.9222800000000001  0.41876  0.63035  1.0000
  N   N92       1.0  0.86795  0.40828  0.67498  1.0000
  N   N93       1.0  0.07772  0.58124  0.63035  1.0000
  N   N94       1.0  0.13205  0.59172  0.67498  1.0000
  N   N95       1.0  0.07772  0.41876  0.36965  1.0000
  N   N96       1.0  0.13205  0.40828  0.32502  1.0000
  Co  Co1       1.0  0.36196  0.5  0.0  1.0000
  Co  Co2       1.0  0.63804  0.5  0.0  1.0000
  Co  Co3       1.0  0.0  0.36196  0.5  1.0000
  Co  Co4       1.0  0.0  0.63804  0.5  1.0000
  Co  Co5       1.0  0.5  0.0  0.36196  1.0000
  Co  Co6       1.0  0.5  0.0  0.63804  1.0000
  Co  Co7       1.0  0.5  0.36196  0.0  1.0000
  Co  Co8       1.0  0.5  0.63804  0.0  1.0000
  Co  Co9       1.0  0.36196  0.0  0.5  1.0000
  Co  Co10      1.0  0.63804  0.0  0.5  1.0000
  Co  Co11      1.0  0.0  0.5  0.63804  1.0000
  Co  Co12      1.0  0.0  0.5  0.36196  1.0000
  C   C1        1.0  0.35006  0.35006  0.1641  1.0000
  C   C2        1.0  0.31818  0.31818  0.22730000000000003  1.0000
  C   C3        1.0  0.64994  0.64994  0.1641  1.0000
  C   C4        1.0  0.6818200000000001  0.6818200000000001  0.22730000000000003  1.0000
  C   C5        1.0  0.64994  0.35006  0.8359  1.0000
  C   C6        1.0  0.6818200000000001  0.31818  0.7727  1.0000
  C   C7        1.0  0.35006  0.64994  0.8359  1.0000
  C   C8        1.0  0.31818  0.6818200000000001  0.7727  1.0000
  C   C9        1.0  0.1641  0.35006  0.35006  1.0000
  C   C10       1.0  0.22730000000000003  0.31818  0.31818  1.0000
  C   C11       1.0  0.1641  0.64994  0.64994  1.0000
  C   C12       1.0  0.22730000000000003  0.6818200000000001  0.6818200000000001  1.0000
  C   C13       1.0  0.8359  0.64994  0.35006  1.0000
  C   C14       1.0  0.7727  0.6818200000000001  0.31818  1.0000
  C   C15       1.0  0.8359  0.35006  0.64994  1.0000
  C   C16       1.0  0.7727  0.31818  0.6818200000000001  1.0000
  C   C17       1.0  0.35006  0.1641  0.35006  1.0000
  C   C18       1.0  0.31818  0.22730000000000003  0.31818  1.0000
  C   C19       1.0  0.64994  0.1641  0.64994  1.0000
  C   C20       1.0  0.6818200000000001  0.22730000000000003  0.6818200000000001  1.0000
  C   C21       1.0  0.35006  0.8359  0.64994  1.0000
  C   C22       1.0  0.31818  0.7727  0.6818200000000001  1.0000
  C   C23       1.0  0.64994  0.8359  0.35006  1.0000
  C   C24       1.0  0.6818200000000001  0.7727  0.31818  1.0000
  C   C25       1.0  0.35006  0.35006  0.8359  1.0000
  C   C26       1.0  0.31818  0.31818  0.7727  1.0000
  C   C27       1.0  0.64994  0.64994  0.8359  1.0000
  C   C28       1.0  0.6818200000000001  0.6818200000000001  0.7727  1.0000
  C   C29       1.0  0.35006  0.64994  0.1641  1.0000
  C   C30       1.0  0.31818  0.6818200000000001  0.22730000000000003  1.0000
  C   C31       1.0  0.64994  0.35006  0.1641  1.0000
  C   C32       1.0  0.6818200000000001  0.31818  0.22730000000000003  1.0000
  C   C33       1.0  0.35006  0.1641  0.64994  1.0000
  C   C34       1.0  0.31818  0.22730000000000003  0.6818200000000001  1.0000
  C   C35       1.0  0.64994  0.1641  0.35006  1.0000
  C   C36       1.0  0.6818200000000001  0.22730000000000003  0.31818  1.0000
  C   C37       1.0  0.64994  0.8359  0.64994  1.0000
  C   C38       1.0  0.6818200000000001  0.7727  0.6818200000000001  1.0000
  C   C39       1.0  0.35006  0.8359  0.35006  1.0000
  C   C40       1.0  0.31818  0.7727  0.31818  1.0000
  C   C41       1.0  0.1641  0.35006  0.64994  1.0000
  C   C42       1.0  0.22730000000000003  0.31818  0.6818200000000001  1.0000
  C   C43       1.0  0.1641  0.64994  0.35006  1.0000
  C   C44       1.0  0.22730000000000003  0.6818200000000001  0.31818  1.0000
  C   C45       1.0  0.8359  0.35006  0.35006  1.0000
  C   C46       1.0  0.7727  0.31818  0.31818  1.0000
  C   C47       1.0  0.8359  0.64994  0.64994  1.0000
  C   C48       1.0  0.7727  0.6818200000000001  0.6818200000000001  1.0000
  C   C49       1.0  0.25746  0.3477  0.25746  1.0000
  H   H1        1.0  0.23679999999999998  0.38770000000000004  0.23679999999999998  1.0000
  C   C50       1.0  0.74254  0.6523  0.25746  1.0000
  H   H2        1.0  0.7632  0.6123  0.23679999999999998  1.0000
  C   C51       1.0  0.74254  0.3477  0.74254  1.0000
  H   H3        1.0  0.7632  0.38770000000000004  0.7632  1.0000
  C   C52       1.0  0.25746  0.6523  0.74254  1.0000
  H   H4        1.0  0.23679999999999998  0.6123  0.7632  1.0000
  C   C53       1.0  0.25746  0.25746  0.3477  1.0000
  H   H5        1.0  0.23679999999999998  0.23679999999999998  0.38770000000000004  1.0000
  C   C54       1.0  0.25746  0.74254  0.6523  1.0000
  H   H6        1.0  0.23679999999999998  0.7632  0.6123  1.0000
  C   C55       1.0  0.74254  0.74254  0.3477  1.0000
  H   H7        1.0  0.7632  0.7632  0.38770000000000004  1.0000
  C   C56       1.0  0.74254  0.25746  0.6523  1.0000
  H   H8        1.0  0.7632  0.23679999999999998  0.6123  1.0000
  C   C57       1.0  0.3477  0.25746  0.25746  1.0000
  H   H9        1.0  0.38770000000000004  0.23679999999999998  0.23679999999999998  1.0000
  C   C58       1.0  0.6523  0.25746  0.74254  1.0000
  H   H10       1.0  0.6123  0.23679999999999998  0.7632  1.0000
  C   C59       1.0  0.3477  0.74254  0.74254  1.0000
  H   H11       1.0  0.38770000000000004  0.7632  0.7632  1.0000
  C   C60       1.0  0.6523  0.74254  0.25746  1.0000
  H   H12       1.0  0.6123  0.7632  0.23679999999999998  1.0000
  C   C61       1.0  0.3477  0.25746  0.74254  1.0000
  H   H13       1.0  0.38770000000000004  0.23679999999999998  0.7632  1.0000
  C   C62       1.0  0.6523  0.74254  0.74254  1.0000
  H   H14       1.0  0.6123  0.7632  0.7632  1.0000
  C   C63       1.0  0.3477  0.74254  0.25746  1.0000
  H   H15       1.0  0.38770000000000004  0.7632  0.23679999999999998  1.0000
  C   C64       1.0  0.6523  0.25746  0.25746  1.0000
  H   H16       1.0  0.6123  0.23679999999999998  0.23679999999999998  1.0000
  C   C65       1.0  0.25746  0.25746  0.6523  1.0000
  H   H17       1.0  0.23679999999999998  0.23679999999999998  0.6123  1.0000
  C   C66       1.0  0.74254  0.25746  0.3477  1.0000
  H   H18       1.0  0.7632  0.23679999999999998  0.38770000000000004  1.0000
  C   C67       1.0  0.74254  0.74254  0.6523  1.0000
  H   H19       1.0  0.7632  0.7632  0.6123  1.0000
  C   C68       1.0  0.25746  0.74254  0.3477  1.0000
  H   H20       1.0  0.23679999999999998  0.7632  0.38770000000000004  1.0000
  C   C69       1.0  0.25746  0.3477  0.74254  1.0000
  H   H21       1.0  0.23679999999999998  0.38770000000000004  0.7632  1.0000
  C   C70       1.0  0.25746  0.6523  0.25746  1.0000
  H   H22       1.0  0.23679999999999998  0.6123  0.23679999999999998  1.0000
  C   C71       1.0  0.74254  0.3477  0.25746  1.0000
  H   H23       1.0  0.7632  0.38770000000000004  0.23679999999999998  1.0000
  C   C72       1.0  0.74254  0.6523  0.74254  1.0000
  H   H24       1.0  0.7632  0.6123  0.7632  1.0000
