data_image0
_chemical_formula_structural       CdO2C3HC2O2CHC2NCHCdO2C3HC2O2CHC2NCHCdO2C3HC2O2CHC2NCHCdO2C3HC2O2CHC2NCH
_chemical_formula_sum              "Cd4 O16 C36 H12 N4"
_cell_length_a       7.1291
_cell_length_b       16.0748
_cell_length_c       11.0375
_cell_angle_alpha    90.0
_cell_angle_beta     90.0
_cell_angle_gamma    90.0

_space_group_name_H-M_alt    "P 1"
_space_group_IT_number       1

loop_
  _space_group_symop_operation_xyz
  'x, y, z'

loop_
  _atom_site_type_symbol
  _atom_site_label
  _atom_site_symmetry_multiplicity
  _atom_site_fract_x
  _atom_site_fract_y
  _atom_site_fract_z
  _atom_site_occupancy
  Cd  Cd1       1.0  0.54464  0.22384  0.8662100000000001  1.0000
  O   O1        1.0  0.4287  0.11171  0.9853000000000002  1.0000
  O   O2        1.0  0.2572  0.22456999999999994  0.9986  1.0000
  C   C1        1.0  0.2884  0.1498  0.024700000000000003  1.0000
  C   C2        1.0  0.1559  0.1046  0.10910000000000002  1.0000
  C   C3        1.0  0.20039999999999997  0.024799999999999992  0.15150000000000002  1.0000
  H   H1        1.0  0.3111999999999999  0.9995  0.1268  1.0000
  C   C4        1.0  0.0798  0.9829999999999998  0.23070000000000004  1.0000
  C   C5        1.0  0.1333  0.8987  0.2847  1.0000
  O   O3        1.0  0.3009  0.8772999999999997  0.27090000000000003  1.0000
  O   O4        1.0  0.0071  0.86063  0.33810000000000007  1.0000
  C   C6        1.0  0.9109999999999999  0.0201  0.2656  1.0000
  H   H2        1.0  0.8288  0.9922  0.3168  1.0000
  C   C7        1.0  0.867  0.0993  0.22290000000000001  1.0000
  C   C8        1.0  0.6914  0.1372  0.2593  1.0000
  N   N1        1.0  0.55  0.1651  0.28920000000000007  1.0000
  C   C9        1.0  0.9899999999999999  0.1422  0.14640000000000003  1.0000
  H   H3        1.0  0.9608999999999998  0.1958  0.12060000000000003  1.0000
  Cd  Cd2       1.0  0.45536  0.77616  0.36621000000000004  1.0000
  O   O5        1.0  0.5713  0.8882899999999998  0.4853000000000001  1.0000
  O   O6        1.0  0.7428  0.7754299999999997  0.4986  1.0000
  C   C10       1.0  0.7116  0.8502  0.5247000000000002  1.0000
  C   C11       1.0  0.8441  0.8953999999999998  0.6091000000000001  1.0000
  C   C12       1.0  0.7996  0.9751999999999997  0.6515  1.0000
  H   H4        1.0  0.6888  0.0005  0.6268000000000001  1.0000
  C   C13       1.0  0.9201999999999999  0.017  0.7307  1.0000
  C   C14       1.0  0.8667  0.1013  0.7847  1.0000
  O   O7        1.0  0.6991  0.12269999999999998  0.7709  1.0000
  O   O8        1.0  0.9929  0.13937  0.8381  1.0000
  C   C15       1.0  0.08899999999999998  0.9798999999999998  0.7656000000000001  1.0000
  H   H5        1.0  0.1712  0.007799999999999999  0.8168  1.0000
  C   C16       1.0  0.133  0.9007  0.7229  1.0000
  C   C17       1.0  0.30859999999999993  0.8628  0.7593000000000002  1.0000
  N   N2        1.0  0.45  0.8349  0.7892  1.0000
  C   C18       1.0  0.01  0.8578  0.6464  1.0000
  H   H6        1.0  0.0391  0.8042  0.6206  1.0000
  Cd  Cd3       1.0  0.044639999999999985  0.27616  0.8662100000000001  1.0000
  O   O9        1.0  0.9287  0.3882899999999999  0.9853000000000002  1.0000
  O   O10       1.0  0.7572  0.2754299999999999  0.9986  1.0000
  C   C19       1.0  0.7883999999999999  0.3502  0.024700000000000003  1.0000
  C   C20       1.0  0.6559  0.3954  0.10910000000000002  1.0000
  C   C21       1.0  0.7004  0.4752  0.15150000000000002  1.0000
  H   H7        1.0  0.8112  0.5005  0.1268  1.0000
  C   C22       1.0  0.5798  0.517  0.23070000000000004  1.0000
  C   C23       1.0  0.6333  0.6013  0.2847  1.0000
  O   O11       1.0  0.8009  0.6227  0.27090000000000003  1.0000
  O   O12       1.0  0.5071  0.63937  0.33810000000000007  1.0000
  C   C24       1.0  0.411  0.4798999999999999  0.2656  1.0000
  H   H8        1.0  0.3288  0.5078  0.3168  1.0000
  C   C25       1.0  0.367  0.4006999999999999  0.22290000000000001  1.0000
  C   C26       1.0  0.1914  0.3628  0.2593  1.0000
  N   N3        1.0  0.05  0.3349  0.28920000000000007  1.0000
  C   C27       1.0  0.49  0.3578  0.14640000000000003  1.0000
  H   H9        1.0  0.4609  0.3042  0.12060000000000003  1.0000
  Cd  Cd4       1.0  0.95536  0.72384  0.36621000000000004  1.0000
  O   O13       1.0  0.0713  0.61171  0.4853000000000001  1.0000
  O   O14       1.0  0.2428  0.72457  0.4986  1.0000
  C   C28       1.0  0.21159999999999995  0.6498  0.5247000000000002  1.0000
  C   C29       1.0  0.3440999999999999  0.6046  0.6091000000000001  1.0000
  C   C30       1.0  0.2996  0.5248  0.6515  1.0000
  H   H10       1.0  0.1888  0.49950000000000006  0.6268000000000001  1.0000
  C   C31       1.0  0.4202  0.483  0.7307  1.0000
  C   C32       1.0  0.3667  0.3987  0.7847  1.0000
  O   O15       1.0  0.19909999999999997  0.3773  0.7709  1.0000
  O   O16       1.0  0.4929  0.36063  0.8381  1.0000
  C   C33       1.0  0.589  0.5201  0.7656000000000001  1.0000
  H   H11       1.0  0.6711999999999999  0.4922  0.8168  1.0000
  C   C34       1.0  0.6329999999999999  0.5992999999999998  0.7229  1.0000
  C   C35       1.0  0.8086  0.6371999999999998  0.7593000000000002  1.0000
  N   N4        1.0  0.95  0.6650999999999998  0.7892  1.0000
  C   C36       1.0  0.51  0.6422  0.6464  1.0000
  H   H12       1.0  0.5391  0.6958  0.6206  1.0000
