data_image0
_chemical_formula_structural       Zn4C2HC2HC2HC4HCHC2HCHC3HC2HC2HC4HCHC2HCHCO13Zn4C2HC2HC2HC4HCHC2HCHC3HC2HC2HC4HCHC2HCHCO13Zn4C2HC2HC2HC4HCHC2HCHC3HC2HC2HC4HCHC2HCHCO13Zn4C2HC2HC2HC4HCHC2HCHC3HC2HC2HC4HCHC2HCHCO13
_chemical_formula_sum              "Zn16 C120 H56 O52"
_cell_length_a       18.478
_cell_length_b       12.181
_cell_length_c       23.055
_cell_angle_alpha    90.0
_cell_angle_beta     90.0
_cell_angle_gamma    90.0

_space_group_name_H-M_alt    "P 1"
_space_group_IT_number       1

loop_
  _space_group_symop_operation_xyz
  'x, y, z'

loop_
  _atom_site_type_symbol
  _atom_site_label
  _atom_site_symmetry_multiplicity
  _atom_site_fract_x
  _atom_site_fract_y
  _atom_site_fract_z
  _atom_site_occupancy
  Zn  Zn1       1.0  0.29917  0.23754  0.18567  1.0000
  Zn  Zn2       1.0  0.20014  0.23794  0.29952  1.0000
  Zn  Zn3       1.0  0.1702  0.06638  0.20422  1.0000
  Zn  Zn4       1.0  0.31982  0.061470000000000004  0.28798  1.0000
  C   C1        1.0  0.114  0.4627000000000001  0.175  1.0000
  C   C2        1.0  0.0461  0.4898  0.19855  1.0000
  H   H1        1.0  0.0306  0.4566  0.2327  1.0000
  C   C3        1.0  0.0023  0.5658  0.17096  1.0000
  C   C4        1.0  0.0251  0.6159  0.1202  1.0000
  H   H2        1.0  0.9955000000000002  0.667  0.102  1.0000
  C   C5        1.0  0.0921  0.5901000000000001  0.09623999999999998  1.0000
  C   C6        1.0  0.1348  0.5126  0.12339999999999998  1.0000
  H   H3        1.0  0.1788  0.4931000000000001  0.1066  1.0000
  C   C7        1.0  0.1611  0.3805000000000001  0.20324  1.0000
  C   C8        1.0  0.9310000000000002  0.5948  0.1986  1.0000
  C   C9        1.0  0.11709999999999998  0.6485  0.04146  1.0000
  C   C10       1.0  0.0688  0.6923  0.0028999999999999994  1.0000
  H   H4        1.0  0.0195  0.6833  0.0095  1.0000
  C   C11       1.0  0.0913  0.7497  0.9541999999999998  1.0000
  H   H5        1.0  0.05740000000000001  0.7813  0.9295  1.0000
  C   C12       1.0  0.1644  0.7598  0.94257  1.0000
  C   C13       1.0  0.2134  0.7101  0.9802999999999998  1.0000
  H   H6        1.0  0.2627  0.7145  0.9726  1.0000
  C   C14       1.0  0.19  0.6547000000000001  0.0288  1.0000
  H   H7        1.0  0.2235  0.6213  0.053099999999999994  1.0000
  C   C15       1.0  0.1906  0.8181000000000002  0.88895  1.0000
  C   C16       1.0  0.497  0.036000000000000004  0.17268  1.0000
  C   C17       1.0  0.5427  0.9648000000000002  0.20082999999999998  1.0000
  H   H8        1.0  0.5277  0.9299  0.2346  1.0000
  C   C18       1.0  0.6123  0.9448000000000002  0.1786  1.0000
  C   C19       1.0  0.6338  0.9982000000000002  0.1273  1.0000
  H   H9        1.0  0.6799  0.9858  0.11239999999999999  1.0000
  C   C20       1.0  0.5871  0.0692  0.0987  1.0000
  C   C21       1.0  0.519  0.0899  0.1224  1.0000
  H   H10       1.0  0.48810000000000003  0.1399  0.1046  1.0000
  C   C22       1.0  0.4233  0.065  0.1976  1.0000
  C   C23       1.0  0.6631  0.8687000000000001  0.20924999999999996  1.0000
  C   C24       1.0  0.6104  0.1289  0.04574999999999999  1.0000
  C   C25       1.0  0.56  0.1603  0.0025  1.0000
  H   H11       1.0  0.5116  0.1402  0.0060999999999999995  1.0000
  C   C26       1.0  0.5829  0.22260000000000002  0.9535999999999999  1.0000
  H   H12       1.0  0.5493  0.24580000000000002  0.9262  1.0000
  C   C27       1.0  0.6552  0.24830000000000005  0.9468999999999997  1.0000
  C   C28       1.0  0.7031  0.2094  0.9859999999999999  1.0000
  H   H13       1.0  0.752  0.22410000000000002  0.9804  1.0000
  C   C29       1.0  0.6829  0.1486  0.0343  1.0000
  H   H14       1.0  0.7181  0.12090000000000001  0.059  1.0000
  C   C30       1.0  0.679  0.3163  0.89522  1.0000
  O   O1        1.0  0.24784  0.1384  0.24341  1.0000
  O   O2        1.0  0.22282  0.36250000000000004  0.18058  1.0000
  O   O3        1.0  0.13799  0.3359  0.25027  1.0000
  O   O4        1.0  0.91518  0.5493  0.24576  1.0000
  O   O5        1.0  0.8921899999999999  0.6646  0.17143999999999998  1.0000
  O   O6        1.0  0.14176  0.8600000000000002  0.8565799999999998  1.0000
  O   O7        1.0  0.2569  0.8244  0.87931  1.0000
  O   O8        1.0  0.38427  0.1268  0.16945  1.0000
  O   O9        1.0  0.40803  0.0187  0.24539999999999998  1.0000
  O   O10       1.0  0.7261  0.8610000000000002  0.1873  1.0000
  O   O11       1.0  0.63902  0.8176000000000002  0.25237  1.0000
  O   O12       1.0  0.62874  0.34740000000000004  0.86153  1.0000
  O   O13       1.0  0.74353  0.33470000000000005  0.8876399999999999  1.0000
  Zn  Zn5       1.0  0.20083  0.76246  0.6856699999999999  1.0000
  Zn  Zn6       1.0  0.29986  0.76206  0.7995199999999999  1.0000
  Zn  Zn7       1.0  0.3298  0.93362  0.7042199999999998  1.0000
  Zn  Zn8       1.0  0.18018  0.93853  0.78798  1.0000
  C   C31       1.0  0.386  0.5373  0.6749999999999999  1.0000
  C   C32       1.0  0.4539  0.5102  0.69855  1.0000
  H   H15       1.0  0.46939999999999993  0.5434  0.7326999999999999  1.0000
  C   C33       1.0  0.4977  0.43420000000000003  0.6709599999999999  1.0000
  C   C34       1.0  0.4749  0.38410000000000005  0.6202  1.0000
  H   H16       1.0  0.5045  0.333  0.602  1.0000
  C   C35       1.0  0.4079  0.40990000000000004  0.59624  1.0000
  C   C36       1.0  0.3652  0.4874  0.6234  1.0000
  H   H17       1.0  0.3212  0.5069  0.6066  1.0000
  C   C37       1.0  0.3389  0.6195  0.70324  1.0000
  C   C38       1.0  0.569  0.4052000000000001  0.6986  1.0000
  C   C39       1.0  0.3829  0.3515  0.54146  1.0000
  C   C40       1.0  0.4312  0.30770000000000003  0.5029  1.0000
  H   H18       1.0  0.4805  0.3167  0.5095  1.0000
  C   C41       1.0  0.4087  0.2503  0.4542  1.0000
  H   H19       1.0  0.4426  0.2187  0.42949999999999994  1.0000
  C   C42       1.0  0.3356  0.24020000000000005  0.4425699999999999  1.0000
  C   C43       1.0  0.2866  0.2899  0.4803  1.0000
  H   H20       1.0  0.23730000000000004  0.2855  0.4726  1.0000
  C   C44       1.0  0.31  0.34530000000000005  0.5288  1.0000
  H   H21       1.0  0.2765  0.3787  0.5531  1.0000
  C   C45       1.0  0.3094  0.1819  0.3889499999999999  1.0000
  C   C46       1.0  0.003  0.9640000000000002  0.6726799999999998  1.0000
  C   C47       1.0  0.9572999999999999  0.03520000000000001  0.70083  1.0000
  H   H22       1.0  0.9723  0.0701  0.7345999999999999  1.0000
  C   C48       1.0  0.8877  0.05520000000000001  0.6786  1.0000
  C   C49       1.0  0.8661999999999999  0.0018000000000000004  0.6273  1.0000
  H   H23       1.0  0.8201  0.0142  0.6124  1.0000
  C   C50       1.0  0.9129000000000002  0.9308000000000001  0.5987  1.0000
  C   C51       1.0  0.9809999999999999  0.9101000000000001  0.6224  1.0000
  H   H24       1.0  0.0119  0.8601  0.6046  1.0000
  C   C52       1.0  0.0767  0.935  0.6976  1.0000
  C   C53       1.0  0.8369  0.1313  0.70925  1.0000
  C   C54       1.0  0.8896  0.8711  0.54575  1.0000
  C   C55       1.0  0.9400000000000001  0.8397  0.5025  1.0000
  H   H25       1.0  0.9883999999999998  0.8598  0.5061  1.0000
  C   C56       1.0  0.9170999999999999  0.7774000000000001  0.4536  1.0000
  H   H26       1.0  0.9506999999999999  0.7542000000000001  0.4261999999999999  1.0000
  C   C57       1.0  0.8448  0.7517  0.4469  1.0000
  C   C58       1.0  0.7969  0.7906000000000001  0.486  1.0000
  H   H27       1.0  0.748  0.7759000000000001  0.48039999999999994  1.0000
  C   C59       1.0  0.8171  0.8514  0.5343  1.0000
  H   H28       1.0  0.7819  0.8791  0.559  1.0000
  C   C60       1.0  0.821  0.6837  0.39522  1.0000
  O   O14       1.0  0.25216  0.8616  0.74341  1.0000
  O   O15       1.0  0.27718  0.6375000000000001  0.68058  1.0000
  O   O16       1.0  0.36201  0.6641  0.75027  1.0000
  O   O17       1.0  0.58482  0.4507000000000001  0.7457599999999999  1.0000
  O   O18       1.0  0.60781  0.3354  0.6714399999999999  1.0000
  O   O19       1.0  0.35824  0.14  0.35657999999999995  1.0000
  O   O20       1.0  0.2431  0.1756  0.3793099999999999  1.0000
  O   O21       1.0  0.11572999999999999  0.8732000000000001  0.6694499999999999  1.0000
  O   O22       1.0  0.09197  0.9813  0.7454  1.0000
  O   O23       1.0  0.7739  0.139  0.6873  1.0000
  O   O24       1.0  0.86098  0.1824  0.7523699999999999  1.0000
  O   O25       1.0  0.87126  0.6526  0.36153  1.0000
  O   O26       1.0  0.75647  0.6653  0.38764  1.0000
  Zn  Zn9       1.0  0.70083  0.73754  0.31433  1.0000
  Zn  Zn10      1.0  0.79986  0.7379400000000002  0.20047999999999994  1.0000
  Zn  Zn11      1.0  0.8298  0.56638  0.29578  1.0000
  Zn  Zn12      1.0  0.68018  0.56147  0.21201999999999996  1.0000
  C   C61       1.0  0.886  0.9627  0.32499999999999996  1.0000
  C   C62       1.0  0.9539  0.9898  0.30145  1.0000
  H   H29       1.0  0.9693999999999999  0.9566  0.2673  1.0000
  C   C63       1.0  0.9976999999999999  0.0658  0.32904  1.0000
  C   C64       1.0  0.9748999999999999  0.1159  0.3798  1.0000
  H   H30       1.0  0.0045  0.167  0.398  1.0000
  C   C65       1.0  0.9079  0.09010000000000001  0.40376  1.0000
  C   C66       1.0  0.8652  0.012600000000000004  0.3766  1.0000
  H   H31       1.0  0.8212  0.9931  0.39339999999999997  1.0000
  C   C67       1.0  0.8389  0.8805  0.29676  1.0000
  C   C68       1.0  0.069  0.09480000000000001  0.3014  1.0000
  C   C69       1.0  0.8828999999999999  0.1485  0.45854  1.0000
  C   C70       1.0  0.9311999999999999  0.19230000000000003  0.4971  1.0000
  H   H32       1.0  0.9805  0.1833  0.4905  1.0000
  C   C71       1.0  0.9087  0.2497  0.5458  1.0000
  H   H33       1.0  0.9426000000000001  0.2813  0.5705  1.0000
  C   C72       1.0  0.8356  0.2598  0.55743  1.0000
  C   C73       1.0  0.7866  0.2101  0.5197  1.0000
  H   H34       1.0  0.7373  0.21450000000000005  0.5273999999999999  1.0000
  C   C74       1.0  0.81  0.1547  0.4712  1.0000
  H   H35       1.0  0.7765  0.1213  0.4469  1.0000
  C   C75       1.0  0.8094  0.3181  0.61105  1.0000
  C   C76       1.0  0.503  0.5360000000000001  0.32732  1.0000
  C   C77       1.0  0.45729999999999993  0.4648000000000001  0.29917  1.0000
  H   H36       1.0  0.47230000000000005  0.4299  0.2654  1.0000
  C   C78       1.0  0.3877  0.44480000000000003  0.3214  1.0000
  C   C79       1.0  0.3662  0.49820000000000003  0.3727  1.0000
  H   H37       1.0  0.3201  0.4858  0.3876  1.0000
  C   C80       1.0  0.4129  0.5692  0.4013  1.0000
  C   C81       1.0  0.481  0.5899  0.3776  1.0000
  H   H38       1.0  0.5119  0.6399000000000001  0.3953999999999999  1.0000
  C   C82       1.0  0.5767  0.565  0.3024  1.0000
  C   C83       1.0  0.3369  0.3687  0.29075  1.0000
  C   C84       1.0  0.3896  0.6289  0.45425  1.0000
  C   C85       1.0  0.44  0.6603  0.4974999999999999  1.0000
  H   H39       1.0  0.48840000000000006  0.6402  0.4938999999999999  1.0000
  C   C86       1.0  0.4171  0.7226000000000002  0.5464  1.0000
  H   H40       1.0  0.4507  0.7458000000000002  0.5738  1.0000
  C   C87       1.0  0.3448  0.7483  0.5531  1.0000
  C   C88       1.0  0.2969  0.7094  0.514  1.0000
  H   H41       1.0  0.248  0.7241  0.5196  1.0000
  C   C89       1.0  0.3171  0.6486000000000001  0.4657  1.0000
  H   H42       1.0  0.2819  0.6209  0.441  1.0000
  C   C90       1.0  0.321  0.8163  0.60478  1.0000
  O   O27       1.0  0.75216  0.6384  0.25659  1.0000
  O   O28       1.0  0.77718  0.8625000000000002  0.31942  1.0000
  O   O29       1.0  0.86201  0.8359  0.24973  1.0000
  O   O30       1.0  0.08482  0.0493  0.25424  1.0000
  O   O31       1.0  0.10781  0.16460000000000002  0.32856  1.0000
  O   O32       1.0  0.85824  0.36000000000000004  0.64342  1.0000
  O   O33       1.0  0.7431  0.3244  0.62069  1.0000
  O   O34       1.0  0.61573  0.6268000000000001  0.33055  1.0000
  O   O35       1.0  0.59197  0.5187  0.2546  1.0000
  O   O36       1.0  0.2739  0.36100000000000004  0.3127  1.0000
  O   O37       1.0  0.36098  0.3176  0.24762999999999996  1.0000
  O   O38       1.0  0.37126  0.8474  0.63847  1.0000
  O   O39       1.0  0.25647  0.8347  0.61236  1.0000
  Zn  Zn13      1.0  0.79917  0.26246  0.81433  1.0000
  Zn  Zn14      1.0  0.70014  0.26206  0.70048  1.0000
  Zn  Zn15      1.0  0.6702  0.43362  0.79578  1.0000
  Zn  Zn16      1.0  0.81982  0.43853  0.71202  1.0000
  C   C91       1.0  0.614  0.0373  0.8249999999999998  1.0000
  C   C92       1.0  0.5461  0.0102  0.8014499999999999  1.0000
  H   H43       1.0  0.5306  0.043400000000000015  0.7673  1.0000
  C   C93       1.0  0.5023  0.9342  0.82904  1.0000
  C   C94       1.0  0.5251  0.8841  0.8797999999999999  1.0000
  H   H44       1.0  0.49549999999999994  0.8330000000000001  0.8979999999999999  1.0000
  C   C95       1.0  0.5921  0.9099000000000002  0.90376  1.0000
  C   C96       1.0  0.6348  0.9874  0.8765999999999999  1.0000
  H   H45       1.0  0.6788  0.006900000000000002  0.8934  1.0000
  C   C97       1.0  0.6611  0.11950000000000001  0.7967599999999999  1.0000
  C   C98       1.0  0.431  0.9052  0.8014  1.0000
  C   C99       1.0  0.6171  0.8515000000000001  0.95854  1.0000
  C   C100      1.0  0.5688  0.8077  0.9971  1.0000
  H   H46       1.0  0.5195  0.8167  0.9905  1.0000
  C   C101      1.0  0.5913  0.7503  0.0458  1.0000
  H   H47       1.0  0.5574  0.7187  0.0705  1.0000
  C   C102      1.0  0.6644  0.7402000000000001  0.057429999999999995  1.0000
  C   C103      1.0  0.7134  0.7899000000000002  0.0197  1.0000
  H   H48       1.0  0.7627  0.7855  0.0274  1.0000
  C   C104      1.0  0.69  0.8453000000000002  0.9711999999999998  1.0000
  H   H49       1.0  0.7235  0.8787000000000001  0.9468999999999997  1.0000
  C   C105      1.0  0.6906  0.6819000000000002  0.11105  1.0000
  C   C106      1.0  0.9969999999999999  0.464  0.82732  1.0000
  C   C107      1.0  0.0427  0.5352  0.7991699999999999  1.0000
  H   H50       1.0  0.027699999999999995  0.5701  0.7654  1.0000
  C   C108      1.0  0.11229999999999998  0.5552  0.8214  1.0000
  C   C109      1.0  0.1338  0.5018  0.8727  1.0000
  H   H51       1.0  0.1799  0.5142  0.8875999999999998  1.0000
  C   C110      1.0  0.0871  0.4308  0.9013  1.0000
  C   C111      1.0  0.019  0.4101  0.8775999999999999  1.0000
  H   H52       1.0  0.9881  0.3601  0.8953999999999999  1.0000
  C   C112      1.0  0.9233  0.4350000000000001  0.8023999999999999  1.0000
  C   C113      1.0  0.1631  0.6313  0.7907499999999998  1.0000
  C   C114      1.0  0.1104  0.37110000000000004  0.9542499999999999  1.0000
  C   C115      1.0  0.06  0.33970000000000006  0.9975  1.0000
  H   H53       1.0  0.0116  0.3598000000000001  0.9939  1.0000
  C   C116      1.0  0.0829  0.27740000000000004  0.04639999999999999  1.0000
  H   H54       1.0  0.0493  0.25420000000000004  0.0738  1.0000
  C   C117      1.0  0.1552  0.2517  0.053099999999999994  1.0000
  C   C118      1.0  0.2031  0.2906  0.014  1.0000
  H   H55       1.0  0.252  0.27590000000000003  0.0196  1.0000
  C   C119      1.0  0.1829  0.35140000000000005  0.9657  1.0000
  H   H56       1.0  0.21809999999999996  0.37910000000000005  0.9409999999999998  1.0000
  C   C120      1.0  0.179  0.18370000000000006  0.10478  1.0000
  O   O40       1.0  0.74784  0.3616  0.7565899999999999  1.0000
  O   O41       1.0  0.72282  0.1375  0.81942  1.0000
  O   O42       1.0  0.63799  0.1641  0.7497299999999999  1.0000
  O   O43       1.0  0.41518  0.9507  0.75424  1.0000
  O   O44       1.0  0.39219  0.8354  0.82856  1.0000
  O   O45       1.0  0.64176  0.64  0.14342  1.0000
  O   O46       1.0  0.7569  0.6756000000000001  0.12069  1.0000
  O   O47       1.0  0.88427  0.3732  0.83055  1.0000
  O   O48       1.0  0.9080300000000001  0.4813  0.7546  1.0000
  O   O49       1.0  0.22610000000000002  0.639  0.8127  1.0000
  O   O50       1.0  0.13902  0.6824000000000001  0.74763  1.0000
  O   O51       1.0  0.12874  0.1526  0.13847  1.0000
  O   O52       1.0  0.24353  0.16530000000000003  0.11236  1.0000
