data_image0
_chemical_formula_structural       C3HCHC2HC2HC2HC5HNOHO4HO5C3HCHC2HC2HC2HC5HNOHO4HO5C3HCHC2HC2HC2HC5HNOHO4HO5C3HCHC2HC2HC2HC5HNOHO4HO5In4
_chemical_formula_sum              "C60 H32 N4 O40 In4"
_cell_length_a       7.2776
_cell_length_b       22.06
_cell_length_c       15.023399999999999
_cell_angle_alpha    90.0
_cell_angle_beta     98.68699999999998
_cell_angle_gamma    90.0

_space_group_name_H-M_alt    "P 1"
_space_group_IT_number       1

loop_
  _space_group_symop_operation_xyz
  'x, y, z'

loop_
  _atom_site_type_symbol
  _atom_site_label
  _atom_site_symmetry_multiplicity
  _atom_site_fract_x
  _atom_site_fract_y
  _atom_site_fract_z
  _atom_site_occupancy
  C   C1        1.0  0.2932  0.47519999999999996  0.1687  1.0000
  C   C2        1.0  0.3473  0.4569999999999999  0.2652  1.0000
  C   C3        1.0  0.5215  0.4731  0.3108  1.0000
  H   H1        1.0  0.6021  0.4958999999999999  0.2818  1.0000
  C   C4        1.0  0.22619999999999998  0.42279999999999995  0.30929999999999996  1.0000
  H   H2        1.0  0.10759999999999999  0.41309999999999997  0.2806  1.0000
  C   C5        1.0  0.5752  0.45519999999999994  0.3997  1.0000
  C   C6        1.0  0.45670000000000005  0.42089999999999994  0.4435  1.0000
  H   H3        1.0  0.49070000000000014  0.4095  0.5033  1.0000
  C   C7        1.0  0.28639999999999993  0.40379999999999994  0.39589999999999986  1.0000
  C   C8        1.0  0.3509  0.2785  0.4378  1.0000
  H   H4        1.0  0.45209999999999995  0.3005  0.4242  1.0000
  C   C9        1.0  0.19210000000000002  0.30779999999999996  0.4452999999999999  1.0000
  C   C10       1.0  0.3671  0.21719999999999998  0.4497  1.0000
  H   H5        1.0  0.4781  0.19799999999999998  0.4431999999999999  1.0000
  C   C11       1.0  0.043099999999999986  0.2734  0.46479999999999994  1.0000
  C   C12       1.0  0.7627  0.4736999999999999  0.4449  1.0000
  C   C13       1.0  0.21990000000000007  0.1835  0.4714  1.0000
  C   C14       1.0  0.2334  0.11619999999999997  0.48509999999999986  1.0000
  C   C15       1.0  0.05229999999999997  0.2124  0.4765  1.0000
  H   H6        1.0  0.9490000000000002  0.19049999999999995  0.4877  1.0000
  N   N1        1.0  0.8597000000000002  0.3021  0.461  1.0000
  O   O1        1.0  0.23140000000000002  0.4711  0.9459  1.0000
  H   H7        1.0  0.1702  0.4536  0.8913  1.0000
  O   O2        1.0  0.13080000000000003  0.4692  0.1341  1.0000
  O   O3        1.0  0.4210000000000001  0.4963  0.132  1.0000
  O   O4        1.0  0.16230000000000006  0.36949999999999994  0.4392  1.0000
  O   O5        1.0  0.8066000000000001  0.45639999999999986  0.5264  1.0000
  H   H8        1.0  0.9147  0.4659  0.5446999999999999  1.0000
  O   O6        1.0  0.8646  0.5038  0.4031  1.0000
  O   O7        1.0  0.3804  0.0904  0.475  1.0000
  O   O8        1.0  0.09260000000000002  0.09179999999999999  0.5104  1.0000
  O   O9        1.0  0.7810000000000002  0.2928  0.5272  1.0000
  O   O10       1.0  0.7980000000000002  0.3344  0.4012  1.0000
  C   C16       1.0  0.20680000000000007  0.9751999999999998  0.3313  1.0000
  C   C17       1.0  0.1527  0.957  0.2348  1.0000
  C   C18       1.0  0.9785000000000003  0.9731  0.18919999999999995  1.0000
  H   H9        1.0  0.8979000000000003  0.9958999999999998  0.2182  1.0000
  C   C19       1.0  0.2738  0.9228  0.1907  1.0000
  H   H10       1.0  0.39240000000000014  0.9131  0.2194  1.0000
  C   C20       1.0  0.9248000000000002  0.9552  0.1003  1.0000
  C   C21       1.0  0.0433  0.9208999999999998  0.0565  1.0000
  H   H11       1.0  0.009299999999999966  0.9095  0.9966999999999998  1.0000
  C   C22       1.0  0.21359999999999998  0.9037999999999998  0.1041  1.0000
  C   C23       1.0  0.1491  0.7785  0.06219999999999999  1.0000
  H   H12       1.0  0.0479  0.8004999999999999  0.0758  1.0000
  C   C24       1.0  0.3079000000000001  0.8078  0.05469999999999999  1.0000
  C   C25       1.0  0.1329  0.7172  0.0503  1.0000
  H   H13       1.0  0.021899999999999996  0.698  0.05679999999999999  1.0000
  C   C26       1.0  0.4569  0.7734  0.0352  1.0000
  C   C27       1.0  0.7373000000000001  0.9736999999999998  0.0551  1.0000
  C   C28       1.0  0.2801000000000001  0.6835  0.0286  1.0000
  C   C29       1.0  0.2666  0.6162  0.014899999999999997  1.0000
  C   C30       1.0  0.44770000000000004  0.7123999999999999  0.0235  1.0000
  H   H14       1.0  0.551  0.6905  0.0123  1.0000
  N   N2        1.0  0.6403  0.8021  0.039  1.0000
  O   O11       1.0  0.2686  0.9710999999999999  0.5541  1.0000
  H   H15       1.0  0.3298  0.9536  0.6087  1.0000
  O   O12       1.0  0.3692  0.9692  0.3659  1.0000
  O   O13       1.0  0.079  0.9963  0.368  1.0000
  O   O14       1.0  0.3377  0.8695  0.0608  1.0000
  O   O15       1.0  0.6934  0.9564  0.9736  1.0000
  H   H16       1.0  0.5853000000000002  0.9659  0.9553  1.0000
  O   O16       1.0  0.6354000000000002  0.0038  0.0969  1.0000
  O   O17       1.0  0.1196  0.5904  0.024999999999999994  1.0000
  O   O18       1.0  0.4074  0.5918  0.9895999999999999  1.0000
  O   O19       1.0  0.719  0.7928  0.9728  1.0000
  O   O20       1.0  0.702  0.8343999999999999  0.0988  1.0000
  C   C31       1.0  0.7068  0.5248  0.8313  1.0000
  C   C32       1.0  0.6527000000000002  0.543  0.7348  1.0000
  C   C33       1.0  0.4785000000000001  0.5269  0.6892  1.0000
  H   H17       1.0  0.39790000000000003  0.5041  0.7182  1.0000
  C   C34       1.0  0.7738000000000003  0.5771999999999999  0.6907  1.0000
  H   H18       1.0  0.8924000000000002  0.5869  0.7194  1.0000
  C   C35       1.0  0.4248  0.5448  0.6003  1.0000
  C   C36       1.0  0.5433  0.5791  0.5565  1.0000
  H   H19       1.0  0.5093  0.5905  0.4967  1.0000
  C   C37       1.0  0.7136  0.5962  0.6041  1.0000
  C   C38       1.0  0.6491  0.7215  0.5622  1.0000
  H   H20       1.0  0.5479  0.6994999999999999  0.5758  1.0000
  C   C39       1.0  0.8079000000000004  0.6922  0.5547  1.0000
  C   C40       1.0  0.6329  0.7827999999999999  0.5502999999999998  1.0000
  H   H21       1.0  0.5219000000000001  0.8019999999999999  0.5568  1.0000
  C   C41       1.0  0.9569  0.7266  0.5352  1.0000
  C   C42       1.0  0.23730000000000007  0.5263  0.5551  1.0000
  C   C43       1.0  0.7801  0.8164999999999999  0.5286  1.0000
  C   C44       1.0  0.7666  0.8838  0.5149  1.0000
  C   C45       1.0  0.9477000000000002  0.7876  0.5235  1.0000
  H   H22       1.0  0.051000000000000004  0.8095  0.5123  1.0000
  N   N3        1.0  0.14030000000000006  0.6978999999999999  0.539  1.0000
  O   O21       1.0  0.7686  0.5289  0.05409999999999999  1.0000
  H   H23       1.0  0.8298000000000002  0.5464  0.10869999999999999  1.0000
  O   O22       1.0  0.8692  0.5308  0.8659  1.0000
  O   O23       1.0  0.579  0.5037  0.868  1.0000
  O   O24       1.0  0.8377  0.6305  0.5608  1.0000
  O   O25       1.0  0.19340000000000004  0.5436  0.4736  1.0000
  H   H24       1.0  0.08530000000000001  0.5340999999999999  0.4553  1.0000
  O   O26       1.0  0.1354  0.4962  0.5969  1.0000
  O   O27       1.0  0.6196000000000003  0.9096  0.525  1.0000
  O   O28       1.0  0.9074  0.9082  0.4896  1.0000
  O   O29       1.0  0.21900000000000006  0.7072  0.4728  1.0000
  O   O30       1.0  0.202  0.6656  0.5988  1.0000
  C   C46       1.0  0.7932  0.024799999999999996  0.6687  1.0000
  C   C47       1.0  0.8473  0.043  0.7651999999999998  1.0000
  C   C48       1.0  0.021500000000000012  0.0269  0.8108  1.0000
  H   H25       1.0  0.10209999999999991  0.0041  0.7817999999999998  1.0000
  C   C49       1.0  0.7262  0.0772  0.8093  1.0000
  H   H26       1.0  0.6076  0.0869  0.7805999999999997  1.0000
  C   C50       1.0  0.07520000000000006  0.0448  0.8997  1.0000
  C   C51       1.0  0.9567000000000002  0.07909999999999999  0.9435  1.0000
  H   H27       1.0  0.9907000000000002  0.0905  0.0033  1.0000
  C   C52       1.0  0.7864000000000002  0.0962  0.8959  1.0000
  C   C53       1.0  0.8509000000000003  0.2215  0.9378  1.0000
  H   H28       1.0  0.9520999999999998  0.1995  0.9241999999999998  1.0000
  C   C54       1.0  0.6921  0.19219999999999998  0.9453  1.0000
  C   C55       1.0  0.8671000000000002  0.2828  0.9497  1.0000
  H   H29       1.0  0.9781  0.302  0.9432  1.0000
  C   C56       1.0  0.5431  0.22659999999999994  0.9648  1.0000
  C   C57       1.0  0.2627  0.026299999999999994  0.9449  1.0000
  C   C58       1.0  0.7199000000000002  0.3165  0.9713999999999999  1.0000
  C   C59       1.0  0.7334000000000003  0.3837999999999999  0.9851  1.0000
  C   C60       1.0  0.5523  0.2876  0.9765  1.0000
  H   H30       1.0  0.449  0.3095  0.9877  1.0000
  N   N4        1.0  0.3597  0.19789999999999996  0.961  1.0000
  O   O31       1.0  0.7314000000000003  0.0289  0.4459  1.0000
  H   H31       1.0  0.6702  0.04639999999999999  0.3913  1.0000
  O   O32       1.0  0.6308  0.030799999999999998  0.6340999999999998  1.0000
  O   O33       1.0  0.9210000000000003  0.0037  0.632  1.0000
  O   O34       1.0  0.6623  0.13049999999999998  0.9392  1.0000
  O   O35       1.0  0.3066000000000001  0.04359999999999999  0.0264  1.0000
  H   H32       1.0  0.4147000000000001  0.0341  0.0447  1.0000
  O   O36       1.0  0.36460000000000004  0.9961999999999998  0.9030999999999999  1.0000
  O   O37       1.0  0.8804000000000001  0.4096  0.975  1.0000
  O   O38       1.0  0.5926000000000002  0.4082  0.0104  1.0000
  O   O39       1.0  0.281  0.20719999999999997  0.0272  1.0000
  O   O40       1.0  0.298  0.1656  0.9012  1.0000
  In  In1       1.0  0.0  0.4999999999999999  0.0  1.0000
  In  In2       1.0  0.5  0.0  0.5  1.0000
  In  In3       1.0  0.5  0.4999999999999999  0.0  1.0000
  In  In4       1.0  0.0  0.0  0.5  1.0000
