data_image0
_chemical_formula_structural       C2H2CH2C3H2CH2C3H2CH2CLa2O12C2H2CH2C3H2CH2C3H2CH2CLa2O12
_chemical_formula_sum              "C24 H24 La4 O24"
_cell_length_a       7.976
_cell_length_b       12.005999999999998
_cell_length_c       12.284000000000002
_cell_angle_alpha    112.01000000000002
_cell_angle_beta     90.05
_cell_angle_gamma    100.58

_space_group_name_H-M_alt    "P 1"
_space_group_IT_number       1

loop_
  _space_group_symop_operation_xyz
  'x, y, z'

loop_
  _atom_site_type_symbol
  _atom_site_label
  _atom_site_symmetry_multiplicity
  _atom_site_fract_x
  _atom_site_fract_y
  _atom_site_fract_z
  _atom_site_occupancy
  C   C1        1.0  0.6352  0.1398  0.0223  1.0000
  C   C2        1.0  0.6153  0.17309999999999998  0.152  1.0000
  H   H1        1.0  0.5345  0.1075  0.1624  1.0000
  H   H2        1.0  0.5672  0.2465  0.1817  1.0000
  C   C3        1.0  0.7854  0.19589999999999996  0.227  1.0000
  H   H3        1.0  0.8699  0.2564  0.2117  1.0000
  H   H4        1.0  0.7652  0.2291  0.3098000000000001  1.0000
  C   C4        1.0  0.8556  0.0818  0.201  1.0000
  C   C5        1.0  0.6443  0.9178  0.6388  1.0000
  C   C6        1.0  0.7134  0.8021  0.5807  1.0000
  H   H5        1.0  0.7326  0.7682999999999999  0.6389  1.0000
  H   H6        1.0  0.629  0.7421  0.5205000000000001  1.0000
  C   C7        1.0  0.7601  0.5262  0.1466  1.0000
  H   H7        1.0  0.8829  0.5541  0.1631  1.0000
  H   H8        1.0  0.7203  0.4744999999999999  0.18970000000000004  1.0000
  C   C8        1.0  0.6729  0.6329  0.1817  1.0000
  C   C9        1.0  0.8619  0.8569  0.41870000000000007  1.0000
  C   C10       1.0  0.8774  0.8244  0.5258  1.0000
  H   H9        1.0  0.957  0.8905  0.5849  1.0000
  H   H10       1.0  0.9263  0.7514  0.5033  1.0000
  C   C11       1.0  0.7158  0.4555  0.015  1.0000
  H   H11       1.0  0.7321  0.5133000000000001  0.9762000000000001  1.0000
  H   H12       1.0  0.5955  0.417  0.0026  1.0000
  C   C12       1.0  0.8196999999999999  0.3569000000000001  0.9560000000000002  1.0000
  La  La1       1.0  0.99112  0.14308000000000007  0.8531800000000002  1.0000
  La  La2       1.0  0.49133  0.14293000000000006  0.7502900000000001  1.0000
  O   O1        1.0  0.7714  0.2779  0.8504  1.0000
  O   O2        1.0  0.949  0.3551  0.010600000000000002  1.0000
  O   O3        1.0  0.7665  0.9871999999999999  0.20870000000000002  1.0000
  O   O4        1.0  0.009900000000000004  0.0791  0.1755  1.0000
  O   O5        1.0  0.5477  0.6395  0.2439  1.0000
  O   O6        1.0  0.7272  0.7217  0.1445  1.0000
  O   O7        1.0  0.5158  0.14979999999999996  0.9618000000000001  1.0000
  O   O8        1.0  0.7677  0.10139999999999999  0.9798  1.0000
  O   O9        1.0  0.9828  0.8473  0.3502  1.0000
  O   O10       1.0  0.731  0.8963  0.40510000000000007  1.0000
  O   O11       1.0  0.7352  0.013800000000000047  0.7162000000000001  1.0000
  O   O12       1.0  0.4888  0.9196  0.6162  1.0000
  C   C13       1.0  0.3648  0.8602  0.9777  1.0000
  C   C14       1.0  0.3847  0.8269  0.848  1.0000
  H   H13       1.0  0.4655  0.8925  0.8376  1.0000
  H   H14       1.0  0.4328  0.7535  0.8183  1.0000
  C   C15       1.0  0.2146  0.8041  0.7730000000000001  1.0000
  H   H15       1.0  0.1301  0.7435999999999999  0.7883  1.0000
  H   H16       1.0  0.2348  0.7709  0.6902  1.0000
  C   C16       1.0  0.1444  0.9182  0.799  1.0000
  C   C17       1.0  0.3557  0.0822  0.3612  1.0000
  C   C18       1.0  0.2866  0.19790000000000005  0.41930000000000006  1.0000
  H   H17       1.0  0.2674  0.2317  0.3611  1.0000
  H   H18       1.0  0.371  0.2579  0.47950000000000004  1.0000
  C   C19       1.0  0.23989999999999995  0.47379999999999994  0.8534  1.0000
  H   H19       1.0  0.11710000000000001  0.4459000000000001  0.8369000000000001  1.0000
  H   H20       1.0  0.2797  0.5255  0.8103  1.0000
  C   C20       1.0  0.3271  0.3671  0.8183  1.0000
  C   C21       1.0  0.1381  0.1431  0.5813  1.0000
  C   C22       1.0  0.1226  0.1756  0.4742  1.0000
  H   H21       1.0  0.043000000000000003  0.10950000000000001  0.4151000000000001  1.0000
  H   H22       1.0  0.0737  0.2486  0.49670000000000003  1.0000
  C   C23       1.0  0.2842  0.5445000000000001  0.9850000000000001  1.0000
  H   H23       1.0  0.2679  0.4867  0.0238  1.0000
  H   H24       1.0  0.4045  0.583  0.9974  1.0000
  C   C24       1.0  0.1803  0.6431  0.044  1.0000
  La  La3       1.0  0.008880000000000004  0.85692  0.14682  1.0000
  La  La4       1.0  0.50867  0.8570699999999999  0.24971000000000002  1.0000
  O   O13       1.0  0.2285999999999999  0.7221  0.1496  1.0000
  O   O14       1.0  0.05100000000000003  0.6449000000000001  0.9894000000000001  1.0000
  O   O15       1.0  0.2335  0.012800000000000013  0.7913  1.0000
  O   O16       1.0  0.9900999999999999  0.9208999999999999  0.8245  1.0000
  O   O17       1.0  0.4522999999999999  0.3605  0.7561  1.0000
  O   O18       1.0  0.2728  0.2783  0.8555  1.0000
  O   O19       1.0  0.48419999999999996  0.8501999999999998  0.0382  1.0000
  O   O20       1.0  0.2323  0.8986  0.0202  1.0000
  O   O21       1.0  0.017199999999999993  0.1527  0.6498  1.0000
  O   O22       1.0  0.269  0.1037  0.5949  1.0000
  O   O23       1.0  0.2648  0.9862  0.28380000000000005  1.0000
  O   O24       1.0  0.5112  0.08040000000000001  0.38380000000000003  1.0000
