data_image0
_chemical_formula_structural       CHC2HC2HC2HC2HC2HCCo3N2O10P2CHC2HC2HC2HC2HC2HCCo3N2O10P2
_chemical_formula_sum              "C24 H12 Co6 N4 O20 P4"
_cell_length_a       8.7167
_cell_length_b       9.752000000000002
_cell_length_c       13.8642
_cell_angle_alpha    84.02999999999999
_cell_angle_beta     79.446
_cell_angle_gamma    73.029

_space_group_name_H-M_alt    "P 1"
_space_group_IT_number       1

loop_
  _space_group_symop_operation_xyz
  'x, y, z'

loop_
  _atom_site_type_symbol
  _atom_site_label
  _atom_site_symmetry_multiplicity
  _atom_site_fract_x
  _atom_site_fract_y
  _atom_site_fract_z
  _atom_site_occupancy
  C   C1        1.0  0.007799999999999997  0.6310999999999999  0.9202  1.0000
  H   H1        1.0  0.9941  0.6973  0.9688  1.0000
  C   C2        1.0  0.8691000000000008  0.6199  0.8886999999999998  1.0000
  C   C3        1.0  0.8921000000000001  0.5273  0.814  1.0000
  H   H2        1.0  0.8016000000000001  0.5202  0.7878  1.0000
  C   C4        1.0  0.04730000000000008  0.4455999999999999  0.7779999999999998  1.0000
  C   C5        1.0  0.17730000000000012  0.46079999999999993  0.8170999999999998  1.0000
  H   H3        1.0  0.28350000000000003  0.4028  0.7941  1.0000
  C   C6        1.0  0.07500000000000002  0.3462  0.6962  1.0000
  C   C7        1.0  0.9298000000000001  0.9351  0.1077  1.0000
  H   H4        1.0  0.9478999999999999  0.8695999999999999  0.057999999999999996  1.0000
  C   C8        1.0  0.06340000000000001  0.9425  0.1462  1.0000
  C   C9        1.0  0.0332  0.03729999999999999  0.2211  1.0000
  H   H5        1.0  0.1197  0.04389999999999998  0.2516  1.0000
  C   C10       1.0  0.8755000000000004  0.12189999999999998  0.2506  1.0000
  C   C11       1.0  0.7521000000000002  0.10749999999999998  0.2056  1.0000
  H   H6        1.0  0.6450000000000001  0.16649999999999998  0.2251  1.0000
  C   C12       1.0  0.8305999999999999  0.2195  0.335  1.0000
  Co  Co1       1.0  0.3619299999999999  0.58415  0.93975  1.0000
  Co  Co2       1.0  0.5771999999999999  0.97889  0.08848  1.0000
  Co  Co3       1.0  0.93989  0.27548  0.52239  1.0000
  N   N1        1.0  0.15910000000000016  0.5540999999999999  0.886  1.0000
  N   N2        1.0  0.7762000000000002  0.0147  0.1363  1.0000
  O   O1        1.0  0.5831  0.8221  0.87347  1.0000
  O   O2        1.0  0.7043000000000001  0.7849999999999999  0.03276  1.0000
  O   O3        1.0  0.5793  0.6023  0.98241  1.0000
  O   O4        1.0  0.9637  0.37549999999999994  0.6438699999999998  1.0000
  O   O5        1.0  0.20270000000000002  0.2441  0.68421  1.0000
  O   O6        1.0  0.3303  0.742  0.19089  1.0000
  O   O7        1.0  0.23360000000000003  0.7362  0.02807  1.0000
  O   O8        1.0  0.36800000000000005  0.9264999999999999  0.05397  1.0000
  O   O9        1.0  0.7124000000000003  0.3287  0.33533  1.0000
  O   O10       1.0  0.9160999999999999  0.176  0.4029999999999999  1.0000
  P   P1        1.0  0.6701000000000001  0.71806  0.94862  1.0000
  P   P2        1.0  0.26487000000000005  0.82752  0.10086  1.0000
  C   C13       1.0  0.9922  0.3688999999999999  0.07979999999999998  1.0000
  H   H7        1.0  0.005900000000000016  0.30269999999999997  0.0312  1.0000
  C   C14       1.0  0.13089999999999996  0.3801  0.1113  1.0000
  C   C15       1.0  0.10790000000000002  0.47269999999999995  0.186  1.0000
  H   H8        1.0  0.1984  0.47979999999999995  0.2122  1.0000
  C   C16       1.0  0.9527000000000001  0.5544  0.222  1.0000
  C   C17       1.0  0.8227000000000003  0.5392  0.1829  1.0000
  H   H9        1.0  0.7165  0.5972  0.2059  1.0000
  C   C18       1.0  0.925  0.6538000000000002  0.3038  1.0000
  C   C19       1.0  0.0702  0.06489999999999999  0.8923  1.0000
  H   H10       1.0  0.05210000000000007  0.1304  0.9419999999999997  1.0000
  C   C20       1.0  0.9366  0.05749999999999999  0.8538  1.0000
  C   C21       1.0  0.9668  0.9626999999999999  0.7789  1.0000
  H   H11       1.0  0.8803  0.9560999999999998  0.7484  1.0000
  C   C22       1.0  0.12450000000000001  0.8781  0.7494  1.0000
  C   C23       1.0  0.24790000000000012  0.8924999999999997  0.7944  1.0000
  H   H12       1.0  0.35500000000000004  0.8335000000000001  0.7748999999999999  1.0000
  C   C24       1.0  0.16939999999999997  0.7805  0.665  1.0000
  Co  Co4       1.0  0.63807  0.41585  0.06025  1.0000
  Co  Co5       1.0  0.42280000000000006  0.021110000000000014  0.9115199999999999  1.0000
  Co  Co6       1.0  0.060110000000000025  0.72452  0.47761  1.0000
  N   N3        1.0  0.8408999999999999  0.44589999999999996  0.11399999999999998  1.0000
  N   N4        1.0  0.22380000000000003  0.9853  0.8637  1.0000
  O   O11       1.0  0.41690000000000005  0.17789999999999997  0.12653  1.0000
  O   O12       1.0  0.2957000000000001  0.21499999999999997  0.96724  1.0000
  O   O13       1.0  0.4207000000000001  0.3977  0.01759  1.0000
  O   O14       1.0  0.03630000000000009  0.6244999999999998  0.3561299999999999  1.0000
  O   O15       1.0  0.7973000000000001  0.7558999999999998  0.31579  1.0000
  O   O16       1.0  0.6697  0.258  0.8091099999999999  1.0000
  O   O17       1.0  0.7664  0.2637999999999999  0.97193  1.0000
  O   O18       1.0  0.632  0.07349999999999998  0.94603  1.0000
  O   O19       1.0  0.2876  0.6712999999999999  0.66467  1.0000
  O   O20       1.0  0.08390000000000022  0.8239999999999998  0.5969999999999998  1.0000
  P   P3        1.0  0.32990000000000014  0.28194  0.05138  1.0000
  P   P4        1.0  0.73513  0.17248  0.89914  1.0000
