data_image0
_chemical_formula_structural       MgO6C3HCHC2HC3HCHC2HC3HCHCHCMgO6C3HCHC2HC3HCHC2HC3HCHCHCMgO6C3HCHC2HC3HCHC2HC3HCHCHCMgO6C3HCHC2HC3HCHC2HC3HCHCHCMgO6C3HCHC2HC3HCHC2HC3HCHCHCMgO6C3HCHC2HC3HCHC2HC3HCHCHCMgO6C3HCHC2HC3HCHC2HC3HCHCHCMgO6C3HCHC2HC3HCHC2HC3HCHCHCMg4
_chemical_formula_sum              "Mg12 O48 C144 H72"
_cell_length_a       13.4191
_cell_length_b       18.0669
_cell_length_c       20.974599999999995
_cell_angle_alpha    90.0
_cell_angle_beta     99.659
_cell_angle_gamma    90.0

_space_group_name_H-M_alt    "P 1"
_space_group_IT_number       1

loop_
  _space_group_symop_operation_xyz
  'x, y, z'

loop_
  _atom_site_type_symbol
  _atom_site_label
  _atom_site_symmetry_multiplicity
  _atom_site_fract_x
  _atom_site_fract_y
  _atom_site_fract_z
  _atom_site_occupancy
  Mg  Mg1       1.0  0.74024  0.259  0.69118  1.0000
  O   O1        1.0  0.50251  0.32882  0.67868  1.0000
  O   O2        1.0  0.6580400000000001  0.34820000000000007  0.65879  1.0000
  O   O3        1.0  0.5172  0.16379  0.6833899999999999  1.0000
  O   O4        1.0  0.6426  0.18988  0.63015  1.0000
  O   O5        1.0  0.80483  0.30259  0.78278  1.0000
  O   O6        1.0  0.66002  0.24492  0.7767  1.0000
  C   C1        1.0  0.5638  0.35866  0.64943  1.0000
  C   C2        1.0  0.5245  0.41103  0.59449  1.0000
  C   C3        1.0  0.4183  0.41841  0.57328  1.0000
  H   H1        1.0  0.3738  0.39230000000000004  0.5944  1.0000
  C   C4        1.0  0.5892999999999999  0.45059000000000005  0.56321  1.0000
  H   H2        1.0  0.6587  0.4467  0.5771  1.0000
  C   C5        1.0  0.5524999999999999  0.49684000000000006  0.5106199999999999  1.0000
  C   C6        1.0  0.3811  0.4630000000000001  0.52275  1.0000
  H   H3        1.0  0.3116  0.4672  0.5098999999999999  1.0000
  C   C7        1.0  0.569  0.15324000000000004  0.64006  1.0000
  C   C8        1.0  0.5367  0.08814000000000001  0.59482  1.0000
  C   C9        1.0  0.4638000000000001  0.03690000000000001  0.6097199999999999  1.0000
  H   H4        1.0  0.4398000000000001  0.0408  0.6487  1.0000
  C   C10       1.0  0.5728000000000001  0.08150000000000003  0.53784  1.0000
  H   H5        1.0  0.6217000000000003  0.1145  0.5286  1.0000
  C   C11       1.0  0.5368  0.0251  0.49235  1.0000
  C   C12       1.0  0.42869999999999997  0.9823  0.5675899999999999  1.0000
  H   H6        1.0  0.38119999999999993  0.9489999999999998  0.5781999999999999  1.0000
  C   C13       1.0  0.7359  0.27566000000000007  0.80973  1.0000
  C   C14       1.0  0.7487999999999999  0.27704  0.8820099999999997  1.0000
  C   C15       1.0  0.8206  0.32607  0.91682  1.0000
  H   H7        1.0  0.8562999999999998  0.3587  0.8947999999999999  1.0000
  C   C16       1.0  0.8370999999999998  0.32507  0.9825399999999999  1.0000
  H   H8        1.0  0.8831  0.3581  0.0052  1.0000
  C   C17       1.0  0.6965  0.22871000000000002  0.9137  1.0000
  H   H9        1.0  0.6486000000000001  0.1976  0.8902  1.0000
  C   C18       1.0  0.7856  0.27472  0.01723  1.0000
  Mg  Mg2       1.0  0.24024  0.759  0.69118  1.0000
  O   O7        1.0  0.002509999999999983  0.82882  0.67868  1.0000
  O   O8        1.0  0.15804  0.8482000000000001  0.65879  1.0000
  O   O9        1.0  0.017199999999999972  0.66379  0.6833899999999999  1.0000
  O   O10       1.0  0.1426  0.68988  0.63015  1.0000
  O   O11       1.0  0.30483  0.8025900000000001  0.78278  1.0000
  O   O12       1.0  0.16002  0.74492  0.7767  1.0000
  C   C19       1.0  0.06380000000000001  0.85866  0.64943  1.0000
  C   C20       1.0  0.024500000000000036  0.91103  0.59449  1.0000
  C   C21       1.0  0.9183000000000002  0.91841  0.57328  1.0000
  H   H10       1.0  0.8738  0.8923  0.5944  1.0000
  C   C22       1.0  0.0893  0.9505900000000002  0.56321  1.0000
  H   H11       1.0  0.1587  0.9467  0.5771  1.0000
  C   C23       1.0  0.052499999999999956  0.99684  0.5106199999999999  1.0000
  C   C24       1.0  0.8811  0.963  0.52275  1.0000
  H   H12       1.0  0.8116  0.9672000000000001  0.5098999999999999  1.0000
  C   C25       1.0  0.06900000000000003  0.65324  0.64006  1.0000
  C   C26       1.0  0.036699999999999976  0.5881400000000001  0.59482  1.0000
  C   C27       1.0  0.9638  0.5369  0.6097199999999999  1.0000
  H   H13       1.0  0.9398  0.5408000000000001  0.6487  1.0000
  C   C28       1.0  0.07280000000000003  0.5815000000000001  0.53784  1.0000
  H   H14       1.0  0.12170000000000002  0.6145  0.5286  1.0000
  C   C29       1.0  0.0368  0.5251  0.49235  1.0000
  C   C30       1.0  0.9287  0.4823  0.5675899999999999  1.0000
  H   H15       1.0  0.8812000000000001  0.44900000000000007  0.5781999999999999  1.0000
  C   C31       1.0  0.23590000000000003  0.77566  0.80973  1.0000
  C   C32       1.0  0.24879999999999997  0.77704  0.8820099999999997  1.0000
  C   C33       1.0  0.3206  0.82607  0.91682  1.0000
  H   H16       1.0  0.3563  0.8587  0.8947999999999999  1.0000
  C   C34       1.0  0.33709999999999996  0.8250700000000002  0.9825399999999999  1.0000
  H   H17       1.0  0.3831  0.8581  0.0052  1.0000
  C   C35       1.0  0.19650000000000004  0.72871  0.9137  1.0000
  H   H18       1.0  0.1486  0.6976  0.8902  1.0000
  C   C36       1.0  0.2856  0.77472  0.01723  1.0000
  Mg  Mg3       1.0  0.2597599999999999  0.259  0.8088199999999999  1.0000
  O   O13       1.0  0.49749  0.32882  0.8213199999999999  1.0000
  O   O14       1.0  0.34196  0.34820000000000007  0.84121  1.0000
  O   O15       1.0  0.4828  0.16379  0.8166099999999998  1.0000
  O   O16       1.0  0.3574  0.18988  0.8698499999999999  1.0000
  O   O17       1.0  0.19516999999999998  0.30259  0.7172199999999999  1.0000
  O   O18       1.0  0.33997999999999995  0.24492  0.7232999999999999  1.0000
  C   C37       1.0  0.4362  0.35866  0.85057  1.0000
  C   C38       1.0  0.4755  0.41103  0.90551  1.0000
  C   C39       1.0  0.5817  0.41841  0.9267199999999999  1.0000
  H   H19       1.0  0.6262  0.39230000000000004  0.9056  1.0000
  C   C40       1.0  0.41069999999999995  0.45059000000000005  0.9367899999999998  1.0000
  H   H20       1.0  0.3413  0.4467  0.9229  1.0000
  C   C41       1.0  0.4475000000000001  0.49684000000000006  0.9893799999999999  1.0000
  C   C42       1.0  0.6189  0.4630000000000001  0.97725  1.0000
  H   H21       1.0  0.6884  0.4672  0.9900999999999999  1.0000
  C   C43       1.0  0.431  0.15324000000000004  0.85994  1.0000
  C   C44       1.0  0.4633000000000001  0.08814000000000001  0.90518  1.0000
  C   C45       1.0  0.5361999999999999  0.03690000000000001  0.8902799999999998  1.0000
  H   H22       1.0  0.5602  0.0408  0.8513  1.0000
  C   C46       1.0  0.42719999999999997  0.08150000000000003  0.9621599999999999  1.0000
  H   H23       1.0  0.3783000000000001  0.1145  0.9713999999999999  1.0000
  C   C47       1.0  0.4632000000000001  0.0251  0.007649999999999998  1.0000
  C   C48       1.0  0.5713  0.9823  0.9324099999999999  1.0000
  H   H24       1.0  0.6188  0.9489999999999998  0.9217999999999998  1.0000
  C   C49       1.0  0.2641  0.27566000000000007  0.69027  1.0000
  C   C50       1.0  0.2512  0.27704  0.61799  1.0000
  C   C51       1.0  0.1794  0.32607  0.58318  1.0000
  H   H25       1.0  0.14369999999999997  0.3587  0.6051999999999998  1.0000
  C   C52       1.0  0.1629  0.32507  0.51746  1.0000
  H   H26       1.0  0.1169  0.3581  0.4948  1.0000
  C   C53       1.0  0.3035  0.22871000000000002  0.5863  1.0000
  H   H27       1.0  0.3514  0.1976  0.6098  1.0000
  C   C54       1.0  0.2144  0.27472  0.48277  1.0000
  Mg  Mg4       1.0  0.75976  0.759  0.8088199999999999  1.0000
  O   O19       1.0  0.9974900000000001  0.82882  0.8213199999999999  1.0000
  O   O20       1.0  0.84196  0.8482000000000001  0.84121  1.0000
  O   O21       1.0  0.9828  0.66379  0.8166099999999998  1.0000
  O   O22       1.0  0.8574  0.68988  0.8698499999999999  1.0000
  O   O23       1.0  0.69517  0.8025900000000001  0.7172199999999999  1.0000
  O   O24       1.0  0.83998  0.74492  0.7232999999999999  1.0000
  C   C55       1.0  0.9362  0.85866  0.85057  1.0000
  C   C56       1.0  0.9755  0.91103  0.90551  1.0000
  C   C57       1.0  0.0817  0.91841  0.9267199999999999  1.0000
  H   H28       1.0  0.12619999999999998  0.8923  0.9056  1.0000
  C   C58       1.0  0.9106999999999998  0.9505900000000002  0.9367899999999998  1.0000
  H   H29       1.0  0.8413000000000002  0.9467  0.9229  1.0000
  C   C59       1.0  0.9475  0.99684  0.9893799999999999  1.0000
  C   C60       1.0  0.1189  0.963  0.97725  1.0000
  H   H30       1.0  0.18839999999999998  0.9672000000000001  0.9900999999999999  1.0000
  C   C61       1.0  0.931  0.65324  0.85994  1.0000
  C   C62       1.0  0.9633000000000003  0.5881400000000001  0.90518  1.0000
  C   C63       1.0  0.03619999999999999  0.5369  0.8902799999999998  1.0000
  H   H31       1.0  0.06019999999999999  0.5408000000000001  0.8513  1.0000
  C   C64       1.0  0.9272000000000001  0.5815000000000001  0.9621599999999999  1.0000
  H   H32       1.0  0.8783  0.6145  0.9713999999999999  1.0000
  C   C65       1.0  0.9632  0.5251  0.007649999999999998  1.0000
  C   C66       1.0  0.07129999999999997  0.4823  0.9324099999999999  1.0000
  H   H33       1.0  0.1188  0.44900000000000007  0.9217999999999998  1.0000
  C   C67       1.0  0.7641000000000001  0.77566  0.69027  1.0000
  C   C68       1.0  0.7512  0.77704  0.61799  1.0000
  C   C69       1.0  0.6794000000000001  0.82607  0.58318  1.0000
  H   H34       1.0  0.6437  0.8587  0.6051999999999998  1.0000
  C   C70       1.0  0.6629  0.8250700000000002  0.51746  1.0000
  H   H35       1.0  0.6169  0.8581  0.4948  1.0000
  C   C71       1.0  0.8035  0.72871  0.5863  1.0000
  H   H36       1.0  0.8514  0.6976  0.6098  1.0000
  C   C72       1.0  0.7144  0.77472  0.48277  1.0000
  Mg  Mg5       1.0  0.25976  0.741  0.30882  1.0000
  O   O25       1.0  0.49749  0.67118  0.32132  1.0000
  O   O26       1.0  0.34196  0.6518  0.34121  1.0000
  O   O27       1.0  0.4828  0.83621  0.31660999999999995  1.0000
  O   O28       1.0  0.3574  0.81012  0.36985  1.0000
  O   O29       1.0  0.19517  0.69741  0.21722  1.0000
  O   O30       1.0  0.33998  0.75508  0.22329999999999997  1.0000
  C   C73       1.0  0.4362  0.64134  0.35057  1.0000
  C   C74       1.0  0.47550000000000003  0.5889700000000001  0.40551  1.0000
  C   C75       1.0  0.5817  0.58159  0.42672  1.0000
  H   H37       1.0  0.6262  0.6077  0.4056  1.0000
  C   C76       1.0  0.4107  0.54941  0.43678999999999996  1.0000
  H   H38       1.0  0.3413  0.5533  0.4229  1.0000
  C   C77       1.0  0.4475000000000001  0.50316  0.48938  1.0000
  C   C78       1.0  0.6189  0.537  0.47725  1.0000
  H   H39       1.0  0.6884  0.5328000000000002  0.4901  1.0000
  C   C79       1.0  0.431  0.8467600000000002  0.35994  1.0000
  C   C80       1.0  0.4633000000000001  0.91186  0.40518  1.0000
  C   C81       1.0  0.5362  0.9631  0.39027999999999996  1.0000
  H   H40       1.0  0.5602  0.9592  0.3513  1.0000
  C   C82       1.0  0.4272  0.9185  0.46215999999999996  1.0000
  H   H41       1.0  0.3783000000000001  0.8855000000000002  0.4714  1.0000
  C   C83       1.0  0.4632000000000001  0.9749000000000001  0.50765  1.0000
  C   C84       1.0  0.5713  0.0177  0.43240999999999996  1.0000
  H   H42       1.0  0.6188  0.051  0.42179999999999995  1.0000
  C   C85       1.0  0.2641  0.72434  0.19027  1.0000
  C   C86       1.0  0.2512  0.72296  0.11799  1.0000
  C   C87       1.0  0.1794  0.67393  0.08318  1.0000
  H   H43       1.0  0.1437  0.6413  0.10519999999999999  1.0000
  C   C88       1.0  0.1629  0.67493  0.01746  1.0000
  H   H44       1.0  0.11689999999999998  0.6419  0.9948  1.0000
  C   C89       1.0  0.3035  0.77129  0.0863  1.0000
  H   H45       1.0  0.3514  0.8024000000000001  0.1098  1.0000
  C   C90       1.0  0.2144  0.72528  0.9827699999999999  1.0000
  Mg  Mg6       1.0  0.75976  0.24100000000000002  0.30882  1.0000
  O   O31       1.0  0.9974900000000001  0.17118  0.32132  1.0000
  O   O32       1.0  0.84196  0.1518  0.34121  1.0000
  O   O33       1.0  0.9828  0.33621  0.31660999999999995  1.0000
  O   O34       1.0  0.8574  0.31012000000000006  0.36985  1.0000
  O   O35       1.0  0.69517  0.19741  0.21722  1.0000
  O   O36       1.0  0.83998  0.25508  0.22329999999999997  1.0000
  C   C91       1.0  0.9362  0.14134  0.35057  1.0000
  C   C92       1.0  0.9755  0.08897000000000001  0.40551  1.0000
  C   C93       1.0  0.0817  0.08159000000000001  0.42672  1.0000
  H   H46       1.0  0.12619999999999998  0.1077  0.4056  1.0000
  C   C94       1.0  0.9107  0.04941  0.43678999999999996  1.0000
  H   H47       1.0  0.8413000000000002  0.05330000000000001  0.4229  1.0000
  C   C95       1.0  0.9475  0.003160000000000001  0.48938  1.0000
  C   C96       1.0  0.1189  0.037  0.47725  1.0000
  H   H48       1.0  0.18840000000000007  0.0328  0.4901  1.0000
  C   C97       1.0  0.931  0.34676  0.35994  1.0000
  C   C98       1.0  0.9633000000000003  0.41186  0.40518  1.0000
  C   C99       1.0  0.03619999999999998  0.4631  0.39027999999999996  1.0000
  H   H49       1.0  0.060200000000000004  0.45920000000000005  0.3513  1.0000
  C   C100      1.0  0.9272000000000001  0.4185  0.46215999999999996  1.0000
  H   H50       1.0  0.8783  0.3855  0.4714  1.0000
  C   C101      1.0  0.9632  0.47490000000000004  0.50765  1.0000
  C   C102      1.0  0.07129999999999999  0.5177  0.43240999999999996  1.0000
  H   H51       1.0  0.11879999999999999  0.551  0.42179999999999995  1.0000
  C   C103      1.0  0.7641000000000001  0.22434  0.19027  1.0000
  C   C104      1.0  0.7512  0.22296  0.11799  1.0000
  C   C105      1.0  0.6794000000000001  0.17393000000000006  0.08318  1.0000
  H   H52       1.0  0.6437  0.1413  0.10519999999999999  1.0000
  C   C106      1.0  0.6629  0.17493000000000003  0.01746  1.0000
  H   H53       1.0  0.6169  0.1419  0.9948  1.0000
  C   C107      1.0  0.8035  0.27129  0.0863  1.0000
  H   H54       1.0  0.8514  0.3024  0.1098  1.0000
  C   C108      1.0  0.7144  0.22528000000000004  0.9827699999999999  1.0000
  Mg  Mg7       1.0  0.74024  0.741  0.19118  1.0000
  O   O37       1.0  0.50251  0.67118  0.17868  1.0000
  O   O38       1.0  0.6580400000000001  0.6518  0.15878999999999996  1.0000
  O   O39       1.0  0.5172  0.83621  0.18338999999999997  1.0000
  O   O40       1.0  0.6426  0.81012  0.13015  1.0000
  O   O41       1.0  0.80483  0.69741  0.28278  1.0000
  O   O42       1.0  0.66002  0.75508  0.2767  1.0000
  C   C109      1.0  0.5638  0.64134  0.14942999999999998  1.0000
  C   C110      1.0  0.5245  0.5889700000000001  0.09449  1.0000
  C   C111      1.0  0.4183  0.58159  0.07328  1.0000
  H   H55       1.0  0.3738  0.6077  0.0944  1.0000
  C   C112      1.0  0.5893  0.54941  0.06320999999999999  1.0000
  H   H56       1.0  0.6587  0.5533  0.0771  1.0000
  C   C113      1.0  0.5525  0.50316  0.01062  1.0000
  C   C114      1.0  0.3811  0.537  0.022749999999999996  1.0000
  H   H57       1.0  0.3116  0.5328000000000002  0.0099  1.0000
  C   C115      1.0  0.569  0.8467600000000002  0.14006  1.0000
  C   C116      1.0  0.5367  0.91186  0.09481999999999999  1.0000
  C   C117      1.0  0.46379999999999993  0.9631  0.10972  1.0000
  H   H58       1.0  0.43979999999999997  0.9592  0.1487  1.0000
  C   C118      1.0  0.5728  0.9185  0.03783999999999999  1.0000
  H   H59       1.0  0.6217000000000003  0.8855000000000002  0.0286  1.0000
  C   C119      1.0  0.5367999999999999  0.9749000000000001  0.9923499999999998  1.0000
  C   C120      1.0  0.4287  0.0177  0.06759  1.0000
  H   H60       1.0  0.3812  0.051  0.0782  1.0000
  C   C121      1.0  0.7359  0.72434  0.30972999999999995  1.0000
  C   C122      1.0  0.7488  0.72296  0.38201  1.0000
  C   C123      1.0  0.8206  0.67393  0.4168199999999999  1.0000
  H   H61       1.0  0.8563000000000002  0.6413  0.3948  1.0000
  C   C124      1.0  0.8370999999999998  0.67493  0.48253999999999997  1.0000
  H   H62       1.0  0.8831  0.6419  0.5052  1.0000
  C   C125      1.0  0.6965  0.77129  0.4137  1.0000
  H   H63       1.0  0.6486000000000001  0.8024000000000001  0.3902  1.0000
  C   C126      1.0  0.7855999999999999  0.72528  0.51723  1.0000
  Mg  Mg8       1.0  0.24024000000000012  0.24100000000000002  0.19118  1.0000
  O   O43       1.0  0.0025099999999999996  0.17118  0.17868  1.0000
  O   O44       1.0  0.15804  0.1518  0.15878999999999996  1.0000
  O   O45       1.0  0.017199999999999993  0.33621  0.18338999999999997  1.0000
  O   O46       1.0  0.1426  0.31012000000000006  0.13015  1.0000
  O   O47       1.0  0.30483  0.19741  0.28278  1.0000
  O   O48       1.0  0.16002  0.25508  0.2767  1.0000
  C   C127      1.0  0.0638  0.14134  0.14942999999999998  1.0000
  C   C128      1.0  0.0245  0.08897000000000001  0.09449  1.0000
  C   C129      1.0  0.9183000000000002  0.08159000000000001  0.07328  1.0000
  H   H64       1.0  0.8738  0.1077  0.0944  1.0000
  C   C130      1.0  0.0893  0.04941  0.06320999999999999  1.0000
  H   H65       1.0  0.1587  0.05330000000000001  0.0771  1.0000
  C   C131      1.0  0.0525  0.003160000000000001  0.01062  1.0000
  C   C132      1.0  0.8811  0.037  0.022749999999999996  1.0000
  H   H66       1.0  0.8116  0.0328  0.0099  1.0000
  C   C133      1.0  0.069  0.34676  0.14006  1.0000
  C   C134      1.0  0.0367  0.41186  0.09481999999999999  1.0000
  C   C135      1.0  0.9638  0.4631  0.10972  1.0000
  H   H67       1.0  0.9398  0.45920000000000005  0.1487  1.0000
  C   C136      1.0  0.07279999999999999  0.4185  0.03783999999999999  1.0000
  H   H68       1.0  0.12170000000000002  0.3855  0.0286  1.0000
  C   C137      1.0  0.03679999999999998  0.47490000000000004  0.9923499999999998  1.0000
  C   C138      1.0  0.9287  0.5177  0.06759  1.0000
  H   H69       1.0  0.8812000000000001  0.551  0.0782  1.0000
  C   C139      1.0  0.23590000000000003  0.22434  0.30972999999999995  1.0000
  C   C140      1.0  0.2488  0.22296  0.38201  1.0000
  C   C141      1.0  0.3206  0.17393000000000006  0.4168199999999999  1.0000
  H   H70       1.0  0.3563  0.1413  0.3948  1.0000
  C   C142      1.0  0.3371  0.17493000000000003  0.48253999999999997  1.0000
  H   H71       1.0  0.3831  0.1419  0.5052  1.0000
  C   C143      1.0  0.19650000000000004  0.27129  0.4137  1.0000
  H   H72       1.0  0.1486  0.3024  0.3902  1.0000
  C   C144      1.0  0.2856  0.22528000000000004  0.51723  1.0000
  Mg  Mg9       1.0  0.5  0.24754  0.75  1.0000
  Mg  Mg10      1.0  0.0  0.74754  0.75  1.0000
  Mg  Mg11      1.0  0.5  0.75246  0.25  1.0000
  Mg  Mg12      1.0  0.0  0.25246  0.25  1.0000
