data_image0
_chemical_formula_structural       TbCu4I4O6N3C4HC2HC2HCHCHCHCHCHCHCHC2HCHTbCu4I4O6N3C4HC2HC2HCHCHCHCHCHCHCHC2HCHTbCu4I4O6N3C4HC2HC2HCHCHCHCHCHCHCHC2HCHTbCu4I4O6N3C4HC2HC2HCHCHCHCHCHCHCHC2HCH
_chemical_formula_sum              "Tb4 Cu16 I16 O24 N12 C72 H48"
_cell_length_a       15.318
_cell_length_b       8.0546
_cell_length_c       29.444
_cell_angle_alpha    90.0
_cell_angle_beta     99.92
_cell_angle_gamma    90.0

_space_group_name_H-M_alt    "P 1"
_space_group_IT_number       1

loop_
  _space_group_symop_operation_xyz
  'x, y, z'

loop_
  _atom_site_type_symbol
  _atom_site_label
  _atom_site_symmetry_multiplicity
  _atom_site_fract_x
  _atom_site_fract_y
  _atom_site_fract_z
  _atom_site_occupancy
  Tb  Tb1       1.0  0.04775  0.74556  0.5096  1.0000
  Cu  Cu1       1.0  0.57051  0.5779  0.75201  1.0000
  Cu  Cu2       1.0  0.6440200000000003  0.3058  0.7154499999999999  1.0000
  Cu  Cu3       1.0  0.49340999999999996  0.4276999999999999  0.6719099999999999  1.0000
  Cu  Cu4       1.0  0.64929  0.6231  0.68094  1.0000
  I   I1        1.0  0.62658  0.3349  0.6251  1.0000
  I   I2        1.0  0.74951  0.54561  0.76144  1.0000
  I   I3        1.0  0.50263  0.2719  0.75243  1.0000
  I   I4        1.0  0.49067  0.75368  0.67525  1.0000
  O   O1        1.0  0.9739  0.4955  0.5427  1.0000
  O   O2        1.0  0.1466  0.9479  0.5477  1.0000
  O   O3        1.0  0.9611  0.8875999999999997  0.5514  1.0000
  O   O4        1.0  0.8850000000000001  0.12219999999999998  0.5474  1.0000
  O   O5        1.0  0.07770000000000003  0.626  0.5899  1.0000
  O   O6        1.0  0.0821  0.19999999999999996  0.5435  1.0000
  N   N1        1.0  0.7307  0.7478  0.6448  1.0000
  N   N2        1.0  0.9553  0.22299999999999995  0.6962  1.0000
  N   N3        1.0  0.3817  0.3225  0.6355  1.0000
  C   C1        1.0  0.01760000000000003  0.5178  0.5835  1.0000
  C   C2        1.0  0.8419  0.9035  0.5923  1.0000
  C   C3        1.0  0.9971000000000002  0.4163  0.6231  1.0000
  C   C4        1.0  0.9103999999999999  0.3572999999999999  0.6224999999999999  1.0000
  H   H1        1.0  0.8645  0.3809999999999999  0.5971999999999997  1.0000
  C   C5        1.0  0.9  0.9797999999999998  0.5617  1.0000
  C   C6        1.0  0.037499999999999985  0.2831  0.6962  1.0000
  H   H2        1.0  0.0826  0.2572  0.7216  1.0000
  C   C7        1.0  0.2305  0.1776  0.5849  1.0000
  C   C8        1.0  0.059599999999999986  0.3802999999999999  0.6612  1.0000
  H   H3        1.0  0.11820000000000003  0.4222999999999999  0.6635  1.0000
  C   C9        1.0  0.3798  0.1617  0.6246  1.0000
  H   H4        1.0  0.4313  0.0967  0.6346  1.0000
  C   C10       1.0  0.8932  0.2643  0.6594  1.0000
  H   H5        1.0  0.8343000000000003  0.227  0.659  1.0000
  C   C11       1.0  0.3057  0.0853  0.5992  1.0000
  H   H6        1.0  0.3069  0.9706  0.5918999999999999  1.0000
  C   C12       1.0  0.3080000000000001  0.4098  0.6226  1.0000
  H   H7        1.0  0.3076  0.5232  0.6314  1.0000
  C   C13       1.0  0.7538999999999999  0.9486  0.5888999999999999  1.0000
  H   H8        1.0  0.7301  0.0348  0.5685  1.0000
  C   C14       1.0  0.7007  0.8678999999999998  0.6154  1.0000
  H   H9        1.0  0.6403000000000002  0.8997  0.6123  1.0000
  C   C15       1.0  0.2308  0.343  0.5966  1.0000
  H   H10       1.0  0.1799  0.4102  0.5872  1.0000
  C   C16       1.0  0.1457  0.1003  0.5555  1.0000
  C   C17       1.0  0.8735  0.7802999999999998  0.6236  1.0000
  H   H11       1.0  0.9336  0.7458999999999999  0.6272  1.0000
  C   C18       1.0  0.8164  0.7073  0.6498  1.0000
  H   H12       1.0  0.8392  0.6258  0.672  1.0000
  Tb  Tb2       1.0  0.45225000000000004  0.24555999999999994  0.9904  1.0000
  Cu  Cu5       1.0  0.92949  0.0779  0.74799  1.0000
  Cu  Cu6       1.0  0.85598  0.8057999999999997  0.78455  1.0000
  Cu  Cu7       1.0  0.006590000000000005  0.9276999999999997  0.82809  1.0000
  Cu  Cu8       1.0  0.85071  0.12309999999999997  0.81906  1.0000
  I   I5        1.0  0.8734200000000002  0.8348999999999998  0.8748999999999999  1.0000
  I   I6        1.0  0.75049  0.04561  0.73856  1.0000
  I   I7        1.0  0.9973700000000003  0.7719  0.74757  1.0000
  I   I8        1.0  0.009330000000000007  0.25368  0.82475  1.0000
  O   O7        1.0  0.5261  0.9954999999999999  0.9573  1.0000
  O   O8        1.0  0.3534  0.4479  0.9523  1.0000
  O   O9        1.0  0.5389  0.3876  0.9486  1.0000
  O   O10       1.0  0.615  0.6222  0.9525999999999999  1.0000
  O   O11       1.0  0.4222999999999999  0.12599999999999995  0.9100999999999998  1.0000
  O   O12       1.0  0.4179000000000001  0.7  0.9565  1.0000
  N   N4        1.0  0.7693  0.24779999999999994  0.8552  1.0000
  N   N5        1.0  0.5447  0.723  0.8038  1.0000
  N   N6        1.0  0.11829999999999996  0.8225  0.8644999999999998  1.0000
  C   C19       1.0  0.4824  0.0178  0.9165  1.0000
  C   C20       1.0  0.6581  0.4035  0.9077  1.0000
  C   C21       1.0  0.5029  0.9163  0.8769  1.0000
  C   C22       1.0  0.5896  0.8573  0.8775  1.0000
  H   H13       1.0  0.6355000000000002  0.881  0.9028  1.0000
  C   C23       1.0  0.6  0.4797999999999999  0.9383  1.0000
  C   C24       1.0  0.4625  0.7830999999999998  0.8038  1.0000
  H   H14       1.0  0.4174  0.7572  0.7784  1.0000
  C   C25       1.0  0.2695  0.6776  0.9151  1.0000
  C   C26       1.0  0.4404  0.8803  0.8388  1.0000
  H   H15       1.0  0.3818  0.9223  0.8365  1.0000
  C   C27       1.0  0.12020000000000004  0.6616999999999997  0.8754  1.0000
  H   H16       1.0  0.06869999999999994  0.5967  0.8654  1.0000
  C   C28       1.0  0.6068  0.7643  0.8405999999999999  1.0000
  H   H17       1.0  0.6657  0.727  0.841  1.0000
  C   C29       1.0  0.19429999999999997  0.5853  0.9008  1.0000
  H   H18       1.0  0.19309999999999994  0.4706  0.9081  1.0000
  C   C30       1.0  0.19200000000000012  0.9098  0.8774  1.0000
  H   H19       1.0  0.1924  0.0232  0.8686  1.0000
  C   C31       1.0  0.7461  0.4486  0.9111  1.0000
  H   H20       1.0  0.7699  0.5348  0.9315  1.0000
  C   C32       1.0  0.7993  0.3679  0.8845999999999999  1.0000
  H   H21       1.0  0.8596999999999999  0.3996999999999999  0.8876999999999998  1.0000
  C   C33       1.0  0.2691999999999999  0.843  0.9033999999999998  1.0000
  H   H22       1.0  0.3201  0.9102  0.9128  1.0000
  C   C34       1.0  0.3542999999999999  0.6003  0.9444999999999998  1.0000
  C   C35       1.0  0.6265000000000002  0.2803  0.8764  1.0000
  H   H23       1.0  0.5663999999999999  0.2459  0.8727999999999998  1.0000
  C   C36       1.0  0.6836  0.2073  0.8502  1.0000
  H   H24       1.0  0.6608  0.1258  0.8279999999999997  1.0000
  Tb  Tb3       1.0  0.9522500000000003  0.25444  0.4904  1.0000
  Cu  Cu9       1.0  0.4294899999999999  0.4221  0.24798999999999993  1.0000
  Cu  Cu10      1.0  0.35598  0.6942  0.28455  1.0000
  Cu  Cu11      1.0  0.50659  0.5723  0.32809  1.0000
  Cu  Cu12      1.0  0.35071  0.3769  0.31906  1.0000
  I   I9        1.0  0.37342  0.6651  0.3749  1.0000
  I   I10       1.0  0.25049  0.45439  0.23856  1.0000
  I   I11       1.0  0.49737  0.7281  0.24757  1.0000
  I   I12       1.0  0.50933  0.24632  0.32474999999999987  1.0000
  O   O13       1.0  0.02609999999999996  0.5045  0.4572999999999999  1.0000
  O   O14       1.0  0.8534  0.0521  0.4523  1.0000
  O   O15       1.0  0.038899999999999976  0.11239999999999997  0.4486  1.0000
  O   O16       1.0  0.11499999999999998  0.8778  0.4526  1.0000
  O   O17       1.0  0.9223  0.374  0.4101  1.0000
  O   O18       1.0  0.9178999999999999  0.7999999999999998  0.45649999999999996  1.0000
  N   N7        1.0  0.2693  0.2522  0.3552  1.0000
  N   N8        1.0  0.044699999999999955  0.7769999999999998  0.3037999999999999  1.0000
  N   N9        1.0  0.6183  0.6774999999999998  0.3645  1.0000
  C   C37       1.0  0.9824000000000003  0.4822  0.4165  1.0000
  C   C38       1.0  0.1581  0.09649999999999997  0.4077  1.0000
  C   C39       1.0  0.0028999999999999907  0.5837  0.3769  1.0000
  C   C40       1.0  0.0896  0.6427  0.3775  1.0000
  H   H25       1.0  0.13549999999999998  0.6189999999999998  0.4027999999999999  1.0000
  C   C41       1.0  0.1  0.0202  0.4383  1.0000
  C   C42       1.0  0.9625  0.7169  0.3037999999999999  1.0000
  H   H26       1.0  0.9174  0.7428  0.2783999999999999  1.0000
  C   C43       1.0  0.7695  0.8223999999999998  0.4150999999999999  1.0000
  C   C44       1.0  0.9404  0.6197  0.3388  1.0000
  H   H27       1.0  0.8818  0.5776999999999998  0.3365  1.0000
  C   C45       1.0  0.6202000000000002  0.8383  0.3754  1.0000
  H   H28       1.0  0.5687  0.9033  0.36539999999999995  1.0000
  C   C46       1.0  0.10680000000000003  0.7356999999999998  0.3406  1.0000
  H   H29       1.0  0.16570000000000004  0.773  0.341  1.0000
  C   C47       1.0  0.6943  0.9146999999999997  0.4008  1.0000
  H   H30       1.0  0.6931  0.029399999999999992  0.4081  1.0000
  C   C48       1.0  0.692  0.5901999999999997  0.3774  1.0000
  H   H31       1.0  0.6924  0.4768  0.3686  1.0000
  C   C49       1.0  0.2461  0.05139999999999999  0.4111  1.0000
  H   H32       1.0  0.2699  0.9651999999999997  0.43149999999999994  1.0000
  C   C50       1.0  0.2993  0.13209999999999994  0.3846  1.0000
  H   H33       1.0  0.3597  0.1003  0.3877  1.0000
  C   C51       1.0  0.7692  0.6569999999999998  0.4034  1.0000
  H   H34       1.0  0.8201  0.5898  0.4128  1.0000
  C   C52       1.0  0.8543  0.8997  0.4445  1.0000
  C   C53       1.0  0.1265  0.2197  0.3764  1.0000
  H   H35       1.0  0.06639999999999999  0.2541  0.3728  1.0000
  C   C54       1.0  0.1836  0.2927  0.3502  1.0000
  H   H36       1.0  0.1608  0.37419999999999987  0.328  1.0000
  Tb  Tb4       1.0  0.54775  0.7544399999999998  0.009599999999999996  1.0000
  Cu  Cu13      1.0  0.07051  0.9221  0.25201  1.0000
  Cu  Cu14      1.0  0.14402  0.1942  0.21545  1.0000
  Cu  Cu15      1.0  0.9934100000000002  0.0723  0.17191  1.0000
  Cu  Cu16      1.0  0.14929  0.8769  0.18094  1.0000
  I   I13       1.0  0.12658  0.1651  0.1251  1.0000
  I   I14       1.0  0.24951  0.9543899999999997  0.26144  1.0000
  I   I15       1.0  0.0026299999999999987  0.2281  0.25243  1.0000
  I   I16       1.0  0.99067  0.74632  0.17524999999999993  1.0000
  O   O19       1.0  0.4739  0.0045  0.0427  1.0000
  O   O20       1.0  0.6466000000000002  0.5521  0.0477  1.0000
  O   O21       1.0  0.4611  0.6124  0.0514  1.0000
  O   O22       1.0  0.385  0.3777999999999999  0.0474  1.0000
  O   O23       1.0  0.5777  0.8739999999999998  0.0899  1.0000
  O   O24       1.0  0.5821  0.3  0.0435  1.0000
  N   N10       1.0  0.2307  0.7522  0.14479999999999998  1.0000
  N   N11       1.0  0.4553  0.277  0.1962  1.0000
  N   N12       1.0  0.8817000000000002  0.1775  0.1355  1.0000
  C   C55       1.0  0.5176  0.9822  0.0835  1.0000
  C   C56       1.0  0.34190000000000004  0.5965  0.09229999999999997  1.0000
  C   C57       1.0  0.4971  0.0837  0.12309999999999997  1.0000
  C   C58       1.0  0.4104000000000001  0.14269999999999994  0.1225  1.0000
  H   H37       1.0  0.3645  0.119  0.0972  1.0000
  C   C59       1.0  0.4  0.5202  0.0617  1.0000
  C   C60       1.0  0.5375  0.21689999999999995  0.1962  1.0000
  H   H38       1.0  0.5826  0.2428  0.2216  1.0000
  C   C61       1.0  0.7305  0.3223999999999999  0.0849  1.0000
  C   C62       1.0  0.5596  0.1197  0.1612  1.0000
  H   H39       1.0  0.6182  0.0777  0.1635  1.0000
  C   C63       1.0  0.8798  0.3383  0.1246  1.0000
  H   H40       1.0  0.9313  0.4032999999999999  0.1346  1.0000
  C   C64       1.0  0.3932  0.2357  0.1594  1.0000
  H   H41       1.0  0.3343  0.273  0.15899999999999995  1.0000
  C   C65       1.0  0.8057  0.4146999999999999  0.09919999999999997  1.0000
  H   H42       1.0  0.8069  0.5294  0.0919  1.0000
  C   C66       1.0  0.808  0.0902  0.1226  1.0000
  H   H43       1.0  0.8076000000000003  0.9767999999999998  0.1314  1.0000
  C   C67       1.0  0.2539  0.5513999999999998  0.0889  1.0000
  H   H44       1.0  0.2301  0.4652  0.0685  1.0000
  C   C68       1.0  0.20070000000000005  0.6321  0.1154  1.0000
  H   H45       1.0  0.1403  0.6003  0.1123  1.0000
  C   C69       1.0  0.7308  0.157  0.0966  1.0000
  H   H46       1.0  0.6799000000000002  0.0898  0.0872  1.0000
  C   C70       1.0  0.6457000000000003  0.3996999999999999  0.0555  1.0000
  C   C71       1.0  0.3735  0.7197  0.1236  1.0000
  H   H47       1.0  0.4336  0.7541  0.1272  1.0000
  C   C72       1.0  0.3164000000000001  0.7927  0.1498  1.0000
  H   H48       1.0  0.33920000000000006  0.8742  0.172  1.0000
