data_image0
_chemical_formula_structural       La2C3HC5HC5HC2O12La2C3HC5HC5HC2O12
_chemical_formula_sum              "La4 C30 H6 O24"
_cell_length_a       9.2467
_cell_length_b       10.714999999999998
_cell_length_c       10.839999999999998
_cell_angle_alpha    86.19
_cell_angle_beta     84.05
_cell_angle_gamma    81.42

_space_group_name_H-M_alt    "P 1"
_space_group_IT_number       1

loop_
  _space_group_symop_operation_xyz
  'x, y, z'

loop_
  _atom_site_type_symbol
  _atom_site_label
  _atom_site_symmetry_multiplicity
  _atom_site_fract_x
  _atom_site_fract_y
  _atom_site_fract_z
  _atom_site_occupancy
  La  La1       1.0  0.5306000000000003  0.73954  0.71967  1.0000
  La  La2       1.0  0.47811000000000003  0.8230000000000002  0.31405  1.0000
  C   C1        1.0  0.2892  0.9896000000000001  0.867  1.0000
  C   C2        1.0  0.14300000000000002  0.9949  0.9422  1.0000
  C   C3        1.0  0.02440000000000002  0.05510000000000001  0.8824999999999998  1.0000
  H   H1        1.0  0.040500000000000015  0.0934  0.8037  1.0000
  C   C4        1.0  0.8811  0.05930000000000001  0.9386999999999999  1.0000
  C   C5        1.0  0.7560000000000001  0.1156  0.8628999999999998  1.0000
  C   C6        1.0  0.7821  0.8791000000000001  0.6504  1.0000
  C   C7        1.0  0.8971999999999997  0.9400000000000002  0.573  1.0000
  C   C8        1.0  0.043200000000000016  0.9171  0.5988  1.0000
  H   H2        1.0  0.07160000000000004  0.8609000000000001  0.664  1.0000
  C   C9        1.0  0.14600000000000002  0.9787000000000001  0.5266  1.0000
  C   C10       1.0  0.30320000000000014  0.9669000000000001  0.5593  1.0000
  C   C11       1.0  0.2806  0.5476  0.3697  1.0000
  C   C12       1.0  0.13569999999999996  0.5188000000000001  0.4387  1.0000
  C   C13       1.0  0.007499999999999982  0.5932000000000001  0.4049  1.0000
  H   H3        1.0  0.012599999999999995  0.656  0.3418  1.0000
  C   C14       1.0  0.8713000000000002  0.5734  0.46549999999999997  1.0000
  C   C15       1.0  0.7372  0.651  0.4219  1.0000
  O   O1        1.0  0.3835  0.8593000000000001  0.5453  1.0000
  O   O2        1.0  0.6239000000000001  0.6769000000000001  0.4986  1.0000
  O   O3        1.0  0.6289  0.09200000000000003  0.8996999999999999  1.0000
  O   O4        1.0  0.7815  0.17630000000000004  0.7637  1.0000
  O   O5        1.0  0.3426000000000001  0.0603  0.598  1.0000
  O   O6        1.0  0.34700000000000003  0.0885  0.8485  1.0000
  O   O7        1.0  0.7355  0.6879  0.3105  1.0000
  O   O8        1.0  0.8085000000000001  0.7674  0.6922  1.0000
  O   O9        1.0  0.6535999999999998  0.9436  0.6684  1.0000
  O   O10       1.0  0.3416  0.6311  0.4086  1.0000
  O   O11       1.0  0.3286000000000002  0.486  0.2733  1.0000
  O   O12       1.0  0.3357  0.8857  0.8174999999999999  1.0000
  La  La3       1.0  0.4694  0.26046  0.28033  1.0000
  La  La4       1.0  0.5218900000000001  0.177  0.68595  1.0000
  C   C16       1.0  0.7108000000000002  0.0104  0.133  1.0000
  C   C17       1.0  0.8570000000000001  0.0050999999999999995  0.0578  1.0000
  C   C18       1.0  0.9756  0.9449  0.1175  1.0000
  H   H4        1.0  0.9595000000000001  0.9066  0.1963  1.0000
  C   C19       1.0  0.11889999999999996  0.9407000000000002  0.06129999999999999  1.0000
  C   C20       1.0  0.24400000000000002  0.8844  0.1371  1.0000
  C   C21       1.0  0.21790000000000004  0.12090000000000001  0.3496  1.0000
  C   C22       1.0  0.10280000000000003  0.06000000000000001  0.42699999999999994  1.0000
  C   C23       1.0  0.9568  0.08290000000000002  0.40119999999999995  1.0000
  H   H5        1.0  0.9284  0.13910000000000003  0.336  1.0000
  C   C24       1.0  0.8540000000000003  0.02130000000000001  0.47339999999999993  1.0000
  C   C25       1.0  0.6968000000000001  0.03310000000000001  0.4407  1.0000
  C   C26       1.0  0.7194000000000002  0.4524  0.6303  1.0000
  C   C27       1.0  0.8643000000000001  0.4812000000000001  0.5612999999999999  1.0000
  C   C28       1.0  0.9925000000000002  0.40680000000000005  0.5951  1.0000
  H   H6        1.0  0.9874000000000002  0.344  0.6582  1.0000
  C   C29       1.0  0.12869999999999995  0.4266000000000001  0.5345  1.0000
  C   C30       1.0  0.2628  0.349  0.5781  1.0000
  O   O13       1.0  0.6165000000000003  0.1407  0.45469999999999994  1.0000
  O   O14       1.0  0.3761  0.3231  0.5014  1.0000
  O   O15       1.0  0.37110000000000015  0.908  0.10029999999999999  1.0000
  O   O16       1.0  0.21849999999999994  0.8237000000000002  0.23629999999999998  1.0000
  O   O17       1.0  0.6574  0.9397000000000002  0.402  1.0000
  O   O18       1.0  0.653  0.9115000000000002  0.1515  1.0000
  O   O19       1.0  0.2645  0.31210000000000004  0.6895  1.0000
  O   O20       1.0  0.1915  0.23260000000000003  0.3078  1.0000
  O   O21       1.0  0.3464  0.05640000000000001  0.3316  1.0000
  O   O22       1.0  0.6584  0.36890000000000006  0.5914  1.0000
  O   O23       1.0  0.6714  0.514  0.7267  1.0000
  O   O24       1.0  0.6643  0.1143  0.1825  1.0000
