data_image0
_chemical_formula_structural       Nd2S3O10C3HC5HC5HC2HCOCHCHONd2S3O10C3HC5HC5HC2HCOCHCHO
_chemical_formula_sum              "Nd4 S6 O24 C36 H12"
_cell_length_a       9.8035
_cell_length_b       10.9423
_cell_length_c       19.428900000000002
_cell_angle_alpha    85.59600000000002
_cell_angle_beta     75.686
_cell_angle_gamma    63.62199999999999

_space_group_name_H-M_alt    "P 1"
_space_group_IT_number       1

loop_
  _space_group_symop_operation_xyz
  'x, y, z'

loop_
  _atom_site_type_symbol
  _atom_site_label
  _atom_site_symmetry_multiplicity
  _atom_site_fract_x
  _atom_site_fract_y
  _atom_site_fract_z
  _atom_site_occupancy
  Nd  Nd1       1.0  0.7100400000000002  0.02728999999999998  0.5004099999999998  1.0000
  Nd  Nd2       1.0  0.24949  0.48029999999999995  0.9908199999999999  1.0000
  S   S1        1.0  0.299  0.5263  0.46973  1.0000
  S   S2        1.0  0.3377000000000001  0.22280000000000003  0.7615299999999999  1.0000
  S   S3        1.0  0.7044000000000002  0.9835999999999998  0.9679399999999998  1.0000
  O   O1        1.0  0.5330000000000001  0.11319999999999998  0.6191999999999999  1.0000
  O   O2        1.0  0.4923  0.2792  0.9885  1.0000
  O   O3        1.0  0.23419999999999994  0.3412  0.9038999999999999  1.0000
  O   O4        1.0  0.31450000000000006  0.1695  0.4482999999999999  1.0000
  O   O5        1.0  0.9808  0.884  0.43639999999999995  1.0000
  O   O6        1.0  0.19880000000000012  0.8151  0.4759  1.0000
  O   O7        1.0  0.08880000000000003  0.642  0.9193  1.0000
  O   O8        1.0  0.4821000000000001  0.2306  0.4799999999999999  1.0000
  O   O9        1.0  0.9865000000000002  0.37099999999999994  0.9269  1.0000
  O   O10       1.0  0.8368  0.6815999999999999  0.9421999999999999  1.0000
  C   C1        1.0  0.1019  0.7933  0.4533  1.0000
  C   C2        1.0  0.9443000000000006  0.7194  0.9325  1.0000
  C   C3        1.0  0.05790000000000006  0.5928  0.4187999999999999  1.0000
  H   H1        1.0  0.9678000000000002  0.6439  0.4024999999999999  1.0000
  C   C4        1.0  0.15549999999999992  0.26880000000000004  0.8172  1.0000
  C   C5        1.0  0.8970999999999999  0.8685  0.9364999999999999  1.0000
  C   C6        1.0  0.4021000000000001  0.112  0.626  1.0000
  C   C7        1.0  0.6309999999999999  0.2581  0.9841  1.0000
  C   C8        1.0  0.12900000000000003  0.4488  0.4196  1.0000
  H   H2        1.0  0.09150000000000012  0.39409999999999995  0.4039999999999999  1.0000
  C   C9        1.0  0.2603  0.3993  0.4462999999999999  1.0000
  C   C10       1.0  0.13629999999999998  0.6491  0.44459999999999994  1.0000
  C   C11       1.0  0.3608  0.2546  0.4593999999999999  1.0000
  C   C12       1.0  0.28690000000000004  0.16719999999999996  0.6962999999999999  1.0000
  C   C13       1.0  0.13530000000000017  0.18299999999999997  0.7170999999999997  1.0000
  H   H3        1.0  0.08800000000000005  0.1571  0.6888  1.0000
  C   C14       1.0  0.7545  0.11729999999999999  0.9617  1.0000
  C   C15       1.0  0.05890000000000002  0.24280000000000002  0.7862999999999999  1.0000
  H   H4        1.0  0.9555000000000001  0.26219999999999993  0.8082999999999999  1.0000
  C   C16       1.0  0.12179999999999999  0.3324  0.8882  1.0000
  O   O11       1.0  0.6722000000000004  0.3458  0.9966999999999999  1.0000
  C   C17       1.0  0.9936999999999998  0.932  0.9209  1.0000
  H   H5        1.0  0.10150000000000002  0.8861000000000001  0.9025999999999998  1.0000
  C   C18       1.0  0.9126  0.0744  0.9354  1.0000
  H   H6        1.0  0.9606999999999999  0.1324  0.928  1.0000
  O   O12       1.0  0.36249999999999993  0.0662  0.5824  1.0000
  Nd  Nd3       1.0  0.2899600000000001  0.9727099999999999  0.49959  1.0000
  Nd  Nd4       1.0  0.7505099999999999  0.5197  0.00918  1.0000
  S   S4        1.0  0.701  0.47369999999999995  0.53027  1.0000
  S   S5        1.0  0.6623  0.7772  0.23846999999999996  1.0000
  S   S6        1.0  0.2956  0.0164  0.03206  1.0000
  O   O13       1.0  0.467  0.8868  0.3807999999999999  1.0000
  O   O14       1.0  0.5077  0.7208  0.0115  1.0000
  O   O15       1.0  0.7658  0.6588  0.0961  1.0000
  O   O16       1.0  0.6855000000000001  0.8305  0.5517  1.0000
  O   O17       1.0  0.01920000000000003  0.116  0.5636  1.0000
  O   O18       1.0  0.8012000000000002  0.1849  0.5241  1.0000
  O   O19       1.0  0.9112  0.358  0.0807  1.0000
  O   O20       1.0  0.5178999999999999  0.7694  0.52  1.0000
  O   O21       1.0  0.013500000000000003  0.629  0.0731  1.0000
  O   O22       1.0  0.16320000000000004  0.3184  0.05779999999999999  1.0000
  C   C19       1.0  0.8981000000000001  0.20669999999999997  0.5467  1.0000
  C   C20       1.0  0.055699999999999965  0.2806  0.06749999999999999  1.0000
  C   C21       1.0  0.9421000000000002  0.4072  0.5811999999999999  1.0000
  H   H7        1.0  0.03220000000000006  0.3561  0.5974999999999999  1.0000
  C   C22       1.0  0.8445000000000006  0.7312  0.18279999999999996  1.0000
  C   C23       1.0  0.1029  0.1315  0.0635  1.0000
  C   C24       1.0  0.5979000000000001  0.888  0.37399999999999994  1.0000
  C   C25       1.0  0.369  0.7419  0.0159  1.0000
  C   C26       1.0  0.8709999999999993  0.5512  0.5804  1.0000
  H   H8        1.0  0.9085  0.6059  0.596  1.0000
  C   C27       1.0  0.7397  0.6006999999999999  0.5536999999999999  1.0000
  C   C28       1.0  0.8637  0.3509  0.5554  1.0000
  C   C29       1.0  0.6392000000000001  0.7454  0.5406  1.0000
  C   C30       1.0  0.7131  0.8327999999999999  0.3037  1.0000
  C   C31       1.0  0.8647000000000002  0.8169999999999998  0.2829  1.0000
  H   H9        1.0  0.9120000000000003  0.8429  0.3112  1.0000
  C   C32       1.0  0.24550000000000005  0.8826999999999999  0.0383  1.0000
  C   C33       1.0  0.9411000000000002  0.7572  0.2137  1.0000
  H   H10       1.0  0.044500000000000046  0.7378  0.19169999999999995  1.0000
  C   C34       1.0  0.8782000000000001  0.6676  0.1118  1.0000
  O   O23       1.0  0.3278000000000001  0.6542  0.0033  1.0000
  C   C35       1.0  0.006300000000000024  0.06799999999999999  0.07909999999999998  1.0000
  H   H11       1.0  0.8985000000000001  0.11389999999999999  0.0974  1.0000
  C   C36       1.0  0.08740000000000006  0.9255999999999999  0.0646  1.0000
  H   H12       1.0  0.03930000000000006  0.8676  0.072  1.0000
  O   O24       1.0  0.6375  0.9338  0.4175999999999999  1.0000
