data_image0
_chemical_formula_structural       CH2CH2C2HCHCHCHNHNOCH2CH2C2HCHCHCHNHNOCH2CH2C2HCHCHCHNHNOCH2CH2C2HCHCHCHNHNOZn2Cr2
_chemical_formula_sum              "C28 H36 N8 O4 Zn2 Cr2"
_cell_length_a       13.85
_cell_length_b       12.77
_cell_length_c       6.939
_cell_angle_alpha    90.0
_cell_angle_beta     91.45
_cell_angle_gamma    90.0

_space_group_name_H-M_alt    "P 1"
_space_group_IT_number       1

loop_
  _space_group_symop_operation_xyz
  'x, y, z'

loop_
  _atom_site_type_symbol
  _atom_site_label
  _atom_site_symmetry_multiplicity
  _atom_site_fract_x
  _atom_site_fract_y
  _atom_site_fract_z
  _atom_site_occupancy
  C   C1        1.0  0.9471999999999998  0.6592000000000001  0.4623999999999999  1.0000
  H   H1        1.0  0.9456  0.655  0.32279999999999986  1.0000
  H   H2        1.0  0.9139  0.5984  0.5119999999999999  1.0000
  C   C2        1.0  0.8032  0.771  0.4223999999999999  1.0000
  H   H3        1.0  0.8145  0.7837  0.287  1.0000
  H   H4        1.0  0.7727  0.833  0.4738999999999999  1.0000
  C   C3        1.0  0.7351  0.6802  0.4389999999999999  1.0000
  C   C4        1.0  0.6973999999999999  0.6287  0.2816  1.0000
  H   H5        1.0  0.7126999999999999  0.6513  0.1586  1.0000
  C   C5        1.0  0.6362  0.5427  0.3026  1.0000
  H   H6        1.0  0.6143  0.5081  0.1918  1.0000
  C   C6        1.0  0.6451999999999998  0.5547  0.6233999999999998  1.0000
  H   H7        1.0  0.6309  0.5286  0.7445999999999998  1.0000
  C   C7        1.0  0.7061  0.6428  0.6134  1.0000
  H   H8        1.0  0.7269  0.6759000000000001  0.7263999999999999  1.0000
  N   N1        1.0  0.8973999999999998  0.7555  0.5237  1.0000
  H   H9        1.0  0.8851  0.7479  0.6512  1.0000
  N   N2        1.0  0.6073999999999998  0.5074  0.47199999999999986  1.0000
  O   O1        1.0  0.9775  0.8833  0.1898  1.0000
  C   C8        1.0  0.4472  0.1592  0.4623999999999999  1.0000
  H   H10       1.0  0.4455999999999999  0.155  0.32279999999999986  1.0000
  H   H11       1.0  0.41389999999999993  0.0984  0.5119999999999999  1.0000
  C   C9        1.0  0.3032  0.271  0.4223999999999999  1.0000
  H   H12       1.0  0.3145  0.2837  0.287  1.0000
  H   H13       1.0  0.2727  0.333  0.4738999999999999  1.0000
  C   C10       1.0  0.2351  0.1802  0.4389999999999999  1.0000
  C   C11       1.0  0.19739999999999996  0.1287  0.2816  1.0000
  H   H14       1.0  0.21269999999999997  0.1513  0.1586  1.0000
  C   C12       1.0  0.1362  0.0427  0.3026  1.0000
  H   H15       1.0  0.11429999999999997  0.0081  0.1918  1.0000
  C   C13       1.0  0.1452  0.054700000000000006  0.6233999999999998  1.0000
  H   H16       1.0  0.13089999999999996  0.0286  0.7445999999999998  1.0000
  C   C14       1.0  0.2061  0.1428  0.6134  1.0000
  H   H17       1.0  0.2269  0.1759  0.7263999999999999  1.0000
  N   N3        1.0  0.3974  0.2555  0.5237  1.0000
  H   H18       1.0  0.3851  0.2479  0.6512  1.0000
  N   N4        1.0  0.1074  0.0074  0.47199999999999986  1.0000
  O   O2        1.0  0.4775  0.38330000000000003  0.1898  1.0000
  C   C15       1.0  0.05279999999999999  0.6592000000000001  0.5376  1.0000
  H   H19       1.0  0.05439999999999999  0.655  0.6772  1.0000
  H   H20       1.0  0.0861  0.5984  0.488  1.0000
  C   C16       1.0  0.1968  0.771  0.5776  1.0000
  H   H21       1.0  0.18549999999999997  0.7837  0.713  1.0000
  H   H22       1.0  0.2273  0.833  0.5261  1.0000
  C   C17       1.0  0.2649  0.6802  0.561  1.0000
  C   C18       1.0  0.3026  0.6287  0.7183999999999998  1.0000
  H   H23       1.0  0.2873  0.6513  0.8414  1.0000
  C   C19       1.0  0.3638  0.5427  0.6973999999999998  1.0000
  H   H24       1.0  0.3857  0.5081  0.8081999999999999  1.0000
  C   C20       1.0  0.35479999999999995  0.5547  0.3765999999999999  1.0000
  H   H25       1.0  0.3691  0.5286  0.2554  1.0000
  C   C21       1.0  0.29389999999999994  0.6428  0.3866  1.0000
  H   H26       1.0  0.2731  0.6759000000000001  0.2736  1.0000
  N   N5        1.0  0.1026  0.7555  0.4762999999999999  1.0000
  H   H27       1.0  0.11489999999999997  0.7479  0.3487999999999999  1.0000
  N   N6        1.0  0.3925999999999999  0.5074  0.528  1.0000
  O   O3        1.0  0.0225  0.8833  0.8102  1.0000
  C   C22       1.0  0.5528  0.1592  0.5376  1.0000
  H   H28       1.0  0.5544  0.155  0.6772  1.0000
  H   H29       1.0  0.5860999999999998  0.0984  0.488  1.0000
  C   C23       1.0  0.6968  0.271  0.5776  1.0000
  H   H30       1.0  0.6855  0.2837  0.713  1.0000
  H   H31       1.0  0.7272999999999998  0.333  0.5261  1.0000
  C   C24       1.0  0.7648999999999999  0.1802  0.561  1.0000
  C   C25       1.0  0.8026  0.1287  0.7183999999999998  1.0000
  H   H32       1.0  0.7873  0.1513  0.8414  1.0000
  C   C26       1.0  0.8638  0.0427  0.6973999999999998  1.0000
  H   H33       1.0  0.8856999999999998  0.0081  0.8081999999999999  1.0000
  C   C27       1.0  0.8547999999999998  0.054700000000000006  0.3765999999999999  1.0000
  H   H34       1.0  0.8691  0.0286  0.2554  1.0000
  C   C28       1.0  0.7939  0.1428  0.3866  1.0000
  H   H35       1.0  0.7731  0.1759  0.2736  1.0000
  N   N7        1.0  0.6026  0.2555  0.4762999999999999  1.0000
  H   H36       1.0  0.6149  0.2479  0.3487999999999999  1.0000
  N   N8        1.0  0.8925999999999997  0.0074  0.528  1.0000
  O   O4        1.0  0.5225  0.38330000000000003  0.8102  1.0000
  Zn  Zn1       1.0  0.0  0.88497  0.4999999999999999  1.0000
  Zn  Zn2       1.0  0.5  0.38497  0.4999999999999999  1.0000
  Cr  Cr1       1.0  0.0  0.80964  0.0  1.0000
  Cr  Cr2       1.0  0.5  0.30964  0.0  1.0000
